
##########################################################################
#               Crystallographic Information Format file 
#               Produced by PyCifRW module
# 
#  This is a CIF file.  CIF has been adopted by the International
#  Union of Crystallography as the standard for data archiving and 
#  transmission.
#
#  For information on this file format, follow the CIF links at
#  http://www.iucr.org
##########################################################################

data_ZEOPP

_cell_length_a                          27.3910729313
_cell_length_b                          24.3397674815
_cell_length_c                          6.9533
_cell_angle_alpha                       90
_cell_angle_beta                        97.343
_cell_angle_gamma                       90
_symmetry_space_group_name_H-M          P1
_symmetry_Int_Tables_number             1
_symmetry_cell_setting                  Monoclinic
loop_
  _symmetry_equiv_pos_as_xyz
         '+x,+y,+z' 
loop_
  _atom_site_label
  _atom_site_type_symbol
  _atom_site_fract_x
  _atom_site_fract_y
  _atom_site_fract_z
         C0        C         0.406545  0.06648   0.664891  
         C1        C         0.093455  0.43352   0.342345  
         C2        C         0.434135  0.107448  0.418073  
         C3        C         0.065864  0.392552  0.589163  
         C4        C         0.39801   0.108304  0.535256  
         C5        C         0.10199   0.391696  0.47198   
         H6        H         0.387017  0.057495  0.763944  
         H7        H         0.112983  0.442505  0.243292  
         H8        H         0.437263  0.132107  0.314448  
         H9        H         0.062737  0.367893  0.692787  
         C10       C         0.165561  0.333995  0.65469   
         H11       H         0.153302  0.345724  0.769715  
         C12       C         0.144665  0.353936  0.475583  
         C13       C         0.162601  0.33677   0.307293  
         H14       H         0.148317  0.3504    0.184864  
         H15       H         0.213686  0.287933  0.2031    
         C16       C         0.201427  0.299662  0.318111  
         C17       C         0.222324  0.279721  0.497233  
         C18       C         0.204391  0.296887  0.665522  
         H19       H         0.218671  0.283257  0.787937  
         C20       C         0.271253  0.230123  0.501899  
         C21       C         0.288944  0.218897  0.350276  
         H22       H         0.274905  0.226587  0.21118   
         C23       C         0.292149  0.210182  0.681002  
         H24       H         0.27989   0.221911  0.796027  
         C25       C         0.330978  0.173074  0.691834  
         H26       H         0.345259  0.159444  0.814248  
         C27       C         0.348912  0.155908  0.523549  
         C28       C         0.328015  0.175849  0.344427  
         H29       H         0.340274  0.16412   0.229412  
         C30       C         0.906945  0.433265  0.160312  
         C31       C         0.593055  0.066735  0.846924  
         C32       C         0.934196  0.391968  0.913413  
         C33       C         0.565804  0.108031  0.093825  
         C34       C         0.898434  0.39106   0.032238  
         C35       C         0.601566  0.108941  0.974998  
         H36       H         0.887628  0.442304  0.259988  
         H37       H         0.612372  0.057696  0.747247  
         H38       H         0.937255  0.367096  0.810338  
         H39       H         0.562746  0.132904  0.196896  
         C40       C         0.636113  0.201876  0.026258  
         H41       H         0.604849  0.213284  0.056924  
         C42       C         0.643362  0.147702  0.973375  
         C43       C         0.689108  0.131013  0.928522  
         H44       H         0.694063  0.093982  0.892378  
         H45       H         0.758863  0.157088  0.905908  
         C46       C         0.727601  0.168493  0.936571  
         C47       C         0.720349  0.22267   0.989457  
         C48       C         0.674606  0.239362  0.034301  
         H49       H         0.669651  0.276387  0.070451  
         C50       C         0.772037  0.268901  0.004706  
         C51       C         0.811353  0.253736  0.949148  
         H52       H         0.822738  0.21518   0.92371   
         C53       C         0.764788  0.323073  0.05759   
         H54       H         0.733524  0.334482  0.088256  
         C55       C         0.803281  0.360559  0.065633  
         H56       H         0.798326  0.397585  0.101783  
         C57       C         0.849024  0.343869  0.020788  
         C58       C         0.856275  0.289692  0.967902  
         H59       H         0.887538  0.278285  0.937241  
         C60       C         0.093455  0.56648   0.842345  
         C61       C         0.406545  0.93352   0.164891  
         C62       C         0.065865  0.607448  0.089163  
         C63       C         0.434136  0.892552  0.918073  
         C64       C         0.10199   0.608304  0.97198   
         C65       C         0.39801   0.891696  0.035256  
         H66       H         0.112983  0.557495  0.743292  
         H67       H         0.387017  0.942505  0.263944  
         H68       H         0.062737  0.632107  0.192788  
         H69       H         0.437263  0.867893  0.814449  
         C70       C         0.334439  0.833995  0.852546  
         H71       H         0.346698  0.845724  0.737521  
         C72       C         0.355335  0.853936  0.031653  
         C73       C         0.337399  0.83677   0.199943  
         H74       H         0.351683  0.8504    0.322372  
         H75       H         0.286314  0.787933  0.304136  
         C76       C         0.298573  0.799662  0.189126  
         C77       C         0.277676  0.779721  0.010004  
         C78       C         0.295609  0.796887  0.841714  
         H79       H         0.281329  0.783257  0.7193    
         C80       C         0.228747  0.730123  0.005337  
         C81       C         0.211056  0.718897  0.156961  
         H82       H         0.225095  0.726587  0.296056  
         C83       C         0.207851  0.710182  0.826234  
         H84       H         0.22011   0.721911  0.711209  
         C85       C         0.169022  0.673074  0.815402  
         H86       H         0.154741  0.659444  0.692988  
         C87       C         0.151088  0.655908  0.983688  
         C88       C         0.171985  0.675849  0.16281   
         H89       H         0.159726  0.66412   0.277825  
         C90       C         0.906644  0.566374  0.658979  
         C91       C         0.593356  0.933626  0.348257  
         C92       C         0.933895  0.607671  0.412081  
         C93       C         0.566104  0.892329  0.595155  
         C94       C         0.897947  0.608357  0.530083  
         C95       C         0.602053  0.891643  0.477153  
         H96       H         0.887258  0.557252  0.758351  
         H97       H         0.612742  0.942748  0.248885  
         H98       H         0.936887  0.632463  0.308708  
         H99       H         0.563114  0.867538  0.698527  
         C100      C         0.665818  0.833751  0.657798  
         H101      H         0.653718  0.845327  0.773326  
         C102      C         0.644702  0.853906  0.479309  
         C103      C         0.662407  0.836963  0.310283  
         H104      H         0.647972  0.850739  0.188277  
         H105      H         0.71332   0.78829   0.204232  
         C106      C         0.701219  0.799866  0.319746  
         C107      C         0.722335  0.779711  0.49825   
         C108      C         0.704634  0.796654  0.667275  
         H109      H         0.719064  0.782878  0.789267  
         C110      C         0.771236  0.730139  0.501159  
         C111      C         0.788717  0.719115  0.348907  
         H112      H         0.774506  0.726972  0.210127  
         C113      C         0.792351  0.709984  0.679644  
         H114      H         0.780251  0.72156   0.795172  
         C115      C         0.831167  0.672887  0.689121  
         H116      H         0.845597  0.659111  0.811113  
         C117      C         0.848868  0.655944  0.5201    
         C118      C         0.827753  0.676099  0.341596  
         H119      H         0.839853  0.664522  0.226078  
         Fe120     Fe        1.0       0.488375  0.75      
         Fe121     Fe        1.0       0.511625  0.25      
         N122      N         0.947946  0.460225  0.120592  
         N123      N         0.947946  0.539775  0.620592  
         N124      N         0.052054  0.460225  0.379408  
         N125      N         0.052054  0.539775  0.879408  
         N126      N         0.964998  0.434906  0.968051  
         N127      N         0.964998  0.565094  0.468051  
         N128      N         0.035002  0.434906  0.531949  
         N129      N         0.035002  0.565094  0.031949  
         Fe130     Fe        0.5       0.988375  0.757236  
         Fe131     Fe        0.5       0.011625  0.257236  
         N132      N         0.447946  0.960225  0.127828  
         N133      N         0.447946  0.039775  0.627828  
         N134      N         0.552054  0.960225  0.386644  
         N135      N         0.552054  0.039775  0.886644  
         N136      N         0.464998  0.934906  0.975287  
         N137      N         0.464998  0.065094  0.475287  
         N138      N         0.535002  0.934906  0.539185  
         N139      N         0.535002  0.065094  0.039185 