
##########################################################################
#               Crystallographic Information Format file 
#               Produced by PyCifRW module
# 
#  This is a CIF file.  CIF has been adopted by the International
#  Union of Crystallography as the standard for data archiving and 
#  transmission.
#
#  For information on this file format, follow the CIF links at
#  http://www.iucr.org
##########################################################################

data_ZEOPP

_cell_length_a                          29.6701727214
_cell_length_b                          26.3649805535
_cell_length_c                          6.9533
_cell_angle_alpha                       90
_cell_angle_beta                        97.343
_cell_angle_gamma                       90
_symmetry_space_group_name_H-M          P1
_symmetry_Int_Tables_number             1
_symmetry_cell_setting                  Monoclinic
loop_
  _symmetry_equiv_pos_as_xyz
         '+x,+y,+z' 
loop_
  _atom_site_label
  _atom_site_type_symbol
  _atom_site_fract_x
  _atom_site_fract_y
  _atom_site_fract_z
         C0        C         0.188795  0.324632  0.321185  
         C1        C         0.180251  0.27504   0.241578  
         C2        C         0.215272  0.238573  0.245203  
         C3        C         0.260512  0.250277  0.324652  
         C4        C         0.269022  0.299734  0.401306  
         C5        C         0.234087  0.335862  0.400217  
         C6        C         0.134229  0.258713  0.154279  
         O7        O         0.115034  0.224533  0.230671  
         N8        N         0.116857  0.283975  0.987626  
         H9        H         0.20715   0.20109   0.185613  
         H10       H         0.303102  0.310655  0.463137  
         H11       H         0.242529  0.372914  0.46294   
         C12       C         0.153104  0.362591  0.32926   
         C13       C         0.121394  0.355833  0.464761  
         C14       C         0.088575  0.393327  0.464864  
         C15       C         0.08426   0.435074  0.349173  
         C16       C         0.05385   0.399127  0.571437  
         C17       C         0.11439   0.443375  0.214507  
         C18       C         0.148936  0.406528  0.205716  
         Cl19      Cl        0.185879  0.416073  0.035156  
         H20       H         0.122781  0.323457  0.562052  
         H21       H         0.044215  0.374442  0.683575  
         H22       H         0.111483  0.476354  0.120174  
         C23       C         0.368993  0.138223  0.33298   
         C24       C         0.339188  0.148598  0.161533  
         C25       C         0.304185  0.184718  0.159029  
         C26       C         0.297041  0.212709  0.327382  
         C27       C         0.327324  0.202299  0.498383  
         C28       C         0.362348  0.166201  0.501102  
         F29       F         0.389962  0.15888   0.667585  
         F30       F         0.322736  0.22688   0.664073  
         F31       F         0.277432  0.192766  0.990791  
         F32       F         0.34378   0.123573  0.996752  
         C33       C         0.405549  0.100919  0.334107  
         C34       C         0.436968  0.09681   0.208553  
         C35       C         0.418717  0.06096   0.454463  
         C36       C         0.397323  0.044414  0.616338  
         H37       H         0.44033   0.120631  0.084466  
         H38       H         0.366396  0.064942  0.643002  
         H39       H         0.133781  0.311819  0.925489  
         H40       H         0.085686  0.274929  0.918389  
         O41       O         0.410886  0.009326  0.723452  
         C42       C         0.67215   0.20001   0.912199  
         C43       C         0.674102  0.241896  0.782911  
         C44       C         0.712185  0.274527  0.797395  
         C45       C         0.749561  0.267475  0.943841  
         C46       C         0.747285  0.22627   0.073548  
         C47       C         0.709679  0.193334  0.057721  
         C48       C         0.636868  0.252947  0.624581  
         O49       O         0.64418   0.249673  0.45586   
         N50       N         0.596098  0.267043  0.683941  
         H51       H         0.712546  0.305468  0.694356  
         H52       H         0.774936  0.219342  0.188642  
         H53       H         0.710065  0.162101  0.159737  
         C54       C         0.634441  0.163845  0.89601   
         C55       C         0.630198  0.128088  0.741027  
         C56       C         0.593756  0.094881  0.734876  
         C57       C         0.562474  0.093604  0.861643  
         C58       C         0.579572  0.056899  0.610997  
         C59       C         0.565154  0.127739  0.015417  
         C60       C         0.601574  0.163008  0.031102  
         Cl61      Cl        0.604441  0.206358  0.219633  
         H62       H         0.653955  0.126798  0.634442  
         H63       H         0.594548  0.044168  0.485533  
         H64       H         0.540453  0.127524  0.117971  
         C65       C         0.866871  0.368642  0.991867  
         C66       C         0.82192   0.387792  0.976294  
         C67       C         0.784102  0.355131  0.960654  
         C68       C         0.788996  0.301462  0.960452  
         C69       C         0.834247  0.282597  0.977546  
         C70       C         0.872098  0.315208  0.993245  
         F71       F         0.913839  0.294562  0.011264  
         F72       F         0.84184   0.232347  0.977357  
         F73       F         0.742511  0.376035  0.947661  
         F74       F         0.814592  0.438106  0.975099  
         C75       C         0.906045  0.402823  0.009703  
         C76       C         0.915057  0.442612  0.133216  
         C77       C         0.943538  0.405276  0.913505  
         C78       C         0.953151  0.373308  0.757804  
         H79       H         0.894524  0.456082  0.240582  
         H80       H         0.927118  0.344935  0.706556  
         H81       H         0.591069  0.270152  0.825342  
         H82       H         0.568987  0.275486  0.584787  
         O83       O         0.987663  0.375881  0.679102  
         C84       C         0.311205  0.824632  0.961099  
         C85       C         0.319749  0.77504   0.040707  
         C86       C         0.284728  0.738573  0.037081  
         C87       C         0.239488  0.750277  0.957632  
         C88       C         0.230978  0.799734  0.880978  
         C89       C         0.265913  0.835862  0.882067  
         C90       C         0.365771  0.758713  0.128005  
         O91       O         0.384966  0.724533  0.051613  
         N92       N         0.383143  0.783975  0.294658  
         H93       H         0.29285   0.70109   0.096671  
         H94       H         0.196898  0.810655  0.819147  
         H95       H         0.257471  0.872914  0.819344  
         C96       C         0.346896  0.862591  0.953024  
         C97       C         0.378606  0.855833  0.817523  
         C98       C         0.411425  0.893327  0.81742   
         C99       C         0.41574   0.935074  0.933111  
         C100      C         0.44615   0.899127  0.710848  
         C101      C         0.38561   0.943375  0.067777  
         C102      C         0.351064  0.906528  0.076568  
         Cl103     Cl        0.314121  0.916073  0.247128  
         H104      H         0.377219  0.823457  0.720232  
         H105      H         0.455785  0.874442  0.598709  
         H106      H         0.388517  0.976354  0.16211   
         C107      C         0.131007  0.638223  0.949304  
         C108      C         0.160812  0.648598  0.120751  
         C109      C         0.195815  0.684718  0.123255  
         C110      C         0.202959  0.712709  0.954902  
         C111      C         0.172676  0.702299  0.783901  
         C112      C         0.137652  0.666201  0.781182  
         F113      F         0.110038  0.65888   0.614699  
         F114      F         0.177264  0.72688   0.618211  
         F115      F         0.222568  0.692766  0.291493  
         F116      F         0.15622   0.623573  0.285532  
         C117      C         0.094451  0.600919  0.948177  
         C118      C         0.063032  0.59681   0.073731  
         C119      C         0.081283  0.56096   0.827821  
         C120      C         0.102677  0.544414  0.665946  
         H121      H         0.05967   0.620631  0.197818  
         H122      H         0.133604  0.564942  0.639282  
         H123      H         0.366219  0.811819  0.356795  
         H124      H         0.414314  0.774929  0.363895  
         O125      O         0.089114  0.509326  0.558832  
         C126      C         0.82785   0.70001   0.370085  
         C127      C         0.825898  0.741896  0.499373  
         C128      C         0.787815  0.774527  0.484889  
         C129      C         0.750439  0.767475  0.338443  
         C130      C         0.752715  0.72627   0.208736  
         C131      C         0.790321  0.693334  0.224563  
         C132      C         0.863132  0.752947  0.657703  
         O133      O         0.85582   0.749673  0.826424  
         N134      N         0.903902  0.767043  0.598343  
         H135      H         0.787454  0.805468  0.587928  
         H136      H         0.725064  0.719342  0.093642  
         H137      H         0.789935  0.662101  0.122547  
         C138      C         0.865559  0.663845  0.386274  
         C139      C         0.869802  0.628088  0.541257  
         C140      C         0.906244  0.594881  0.547408  
         C141      C         0.937526  0.593604  0.420641  
         C142      C         0.920428  0.556899  0.671287  
         C143      C         0.934846  0.627739  0.266867  
         C144      C         0.898426  0.663008  0.251182  
         Cl145     Cl        0.895559  0.706358  0.062651  
         H146      H         0.846045  0.626798  0.647842  
         H147      H         0.905452  0.544168  0.796751  
         H148      H         0.959547  0.627524  0.164313  
         C149      C         0.633129  0.868642  0.290417  
         C150      C         0.67808   0.887792  0.30599   
         C151      C         0.715898  0.855131  0.32163   
         C152      C         0.711004  0.801462  0.321832  
         C153      C         0.665753  0.782597  0.304738  
         C154      C         0.627902  0.815208  0.289039  
         F155      F         0.586161  0.794562  0.27102   
         F156      F         0.65816   0.732347  0.304927  
         F157      F         0.757489  0.876035  0.334623  
         F158      F         0.685408  0.938106  0.307185  
         C159      C         0.593955  0.902823  0.272581  
         C160      C         0.584943  0.942612  0.149068  
         C161      C         0.556462  0.905276  0.368779  
         C162      C         0.546849  0.873308  0.52448   
         H163      H         0.605476  0.956082  0.041702  
         H164      H         0.572882  0.844935  0.575728  
         H165      H         0.908931  0.770152  0.456942  
         H166      H         0.931013  0.775486  0.697497  
         O167      O         0.512337  0.875881  0.603182  
         Fe168     Fe        0.0       0.489268  0.75      
         Fe169     Fe        1.0       0.510732  0.25      
         N170      N         0.951945  0.463281  0.120592  
         N171      N         0.951945  0.536719  0.620592  
         N172      N         0.048055  0.463281  0.379408  
         N173      N         0.048055  0.536719  0.879408  
         N174      N         0.967687  0.439906  0.968051  
         N175      N         0.967687  0.560094  0.468051  
         N176      N         0.032313  0.439906  0.531949  
         N177      N         0.032313  0.560094  0.031949  
         Fe178     Fe        0.5       0.989268  0.532284  
         Fe179     Fe        0.5       0.010732  0.032284  
         N180      N         0.451945  0.963281  0.902876  
         N181      N         0.451945  0.036719  0.402876  
         N182      N         0.548055  0.963281  0.161692  
         N183      N         0.548055  0.036719  0.661692  
         N184      N         0.467687  0.939906  0.750335  
         N185      N         0.467687  0.060094  0.250335  
         N186      N         0.532313  0.939906  0.314233  
         N187      N         0.532313  0.060094  0.814233 