
##########################################################################
#               Crystallographic Information Format file 
#               Produced by PyCifRW module
# 
#  This is a CIF file.  CIF has been adopted by the International
#  Union of Crystallography as the standard for data archiving and 
#  transmission.
#
#  For information on this file format, follow the CIF links at
#  http://www.iucr.org
##########################################################################

data_ZEOPP

_cell_length_a                          5.15949545015
_cell_length_b                          4.58473897292
_cell_length_c                          6.9533
_cell_angle_alpha                       90
_cell_angle_beta                        97.343
_cell_angle_gamma                       90
_symmetry_space_group_name_H-M          P1
_symmetry_Int_Tables_number             1
_symmetry_cell_setting                  Monoclinic
loop_
  _symmetry_equiv_pos_as_xyz
         '+x,+y,+z' 
loop_
  _atom_site_label
  _atom_site_type_symbol
  _atom_site_fract_x
  _atom_site_fract_y
  _atom_site_fract_z
         C0        C         0.258893  0.263203  0.771161  
         C1        C         0.131732  0.07439   0.640617  
         C2        C         0.375291  0.436036  0.64818   
         H3        H         0.008863  0.89195   0.667926  
         H4        H         0.500772  0.622356  0.684496  
         C5        C         0.987707  0.860534  0.069778  
         O6        O         0.910855  0.746421  0.244632  
         C7        C         0.161252  0.118221  0.112135  
         C8        C         0.403492  0.477909  0.100923  
         C9        C         0.270944  0.281097  0.978659  
         H10       H         0.524052  0.656921  0.063293  
         H11       H         0.090934  0.688414  0.001105  
         H12       H         0.810881  0.923373  0.974546  
         H13       H         0.79813   0.579043  0.210265  
         C14       C         0.758877  0.236818  0.357463  
         C15       C         0.631703  0.425651  0.226939  
         C16       C         0.87526   0.064007  0.23446   
         H17       H         0.508839  0.608085  0.254269  
         H18       H         0.000745  0.877683  0.270755  
         C19       C         0.487729  0.639432  0.656129  
         O20       O         0.410898  0.753514  0.830998  
         C21       C         0.661276  0.381741  0.698457  
         C22       C         0.903513  0.022059  0.687203  
         C23       C         0.770953  0.218889  0.564961  
         H24       H         0.024067  0.843054  0.649552  
         H25       H         0.310894  0.576606  0.560903  
         H26       H         0.590947  0.811565  0.587462  
         H27       H         0.29817   0.920896  0.796651  
         C28       C         0.258877  0.736818  0.357463  
         C29       C         0.131703  0.925651  0.226939  
         C30       C         0.37526   0.564007  0.23446   
         H31       H         0.008839  0.108085  0.254269  
         H32       H         0.500745  0.377683  0.270755  
         C33       C         0.987729  0.139432  0.656129  
         O34       O         0.910898  0.253514  0.830998  
         C35       C         0.161276  0.881741  0.698457  
         C36       C         0.403513  0.522059  0.687203  
         C37       C         0.270953  0.718889  0.564961  
         H38       H         0.524067  0.343054  0.649552  
         H39       H         0.810894  0.076606  0.560903  
         H40       H         0.090947  0.311565  0.587462  
         H41       H         0.79817   0.420896  0.796651  
         C42       C         0.758877  0.763182  0.857463  
         C43       C         0.631703  0.574349  0.726939  
         C44       C         0.87526   0.935993  0.73446   
         H45       H         0.508839  0.391915  0.754269  
         H46       H         0.000745  0.122317  0.770755  
         C47       C         0.487729  0.360568  0.156129  
         O48       O         0.410898  0.246486  0.330998  
         C49       C         0.661276  0.618259  0.198457  
         C50       C         0.903513  0.977941  0.187203  
         C51       C         0.770953  0.781111  0.064961  
         H52       H         0.024067  0.156946  0.149552  
         H53       H         0.590947  0.188435  0.087462  
         H54       H         0.310894  0.423394  0.060903  
         H55       H         0.29817   0.079104  0.296651  
         Fe56      Fe        1.0       0.438285  0.75      
         Fe57      Fe        1.0       0.561715  0.25      
         N58       N         0.723654  0.288842  0.120592  
         N59       N         0.723654  0.711158  0.620592  
         N60       N         0.276346  0.288842  0.379408  
         N61       N         0.276346  0.711158  0.879408  
         N62       N         0.81418   0.154424  0.968051  
         N63       N         0.81418   0.845576  0.468051  
         N64       N         0.18582   0.154424  0.531949  
         N65       N         0.18582   0.845576  0.031949  
         Fe66      Fe        0.5       0.938285  0.577485  
         Fe67      Fe        0.5       0.061715  0.077485  
         N68       N         0.223654  0.788842  0.948077  
         N69       N         0.223654  0.211158  0.448077  
         N70       N         0.776346  0.788842  0.206893  
         N71       N         0.776346  0.211158  0.706893  
         N72       N         0.31418   0.654424  0.795536  
         N73       N         0.31418   0.345576  0.295536  
         N74       N         0.68582   0.654424  0.359434  
         N75       N         0.68582   0.345576  0.859434 