
##########################################################################
#               Crystallographic Information Format file 
#               Produced by PyCifRW module
# 
#  This is a CIF file.  CIF has been adopted by the International
#  Union of Crystallography as the standard for data archiving and 
#  transmission.
#
#  For information on this file format, follow the CIF links at
#  http://www.iucr.org
##########################################################################

data_ZEOPP

_cell_length_a                          5.28984129127
_cell_length_b                          4.70056457322
_cell_length_c                          6.9533
_cell_angle_alpha                       90
_cell_angle_beta                        97.343
_cell_angle_gamma                       90
_symmetry_space_group_name_H-M          P1
_symmetry_Int_Tables_number             1
_symmetry_cell_setting                  Monoclinic
loop_
  _symmetry_equiv_pos_as_xyz
         '+x,+y,+z' 
loop_
  _atom_site_label
  _atom_site_type_symbol
  _atom_site_fract_x
  _atom_site_fract_y
  _atom_site_fract_z
C 	C         0.40317871258       0.435547392729      0.760501943774     
C 	C         0.320073056227      0.285202369796      0.908295540023     
C 	C         0.139825007919      0.0930316774699     0.812559434729     
C 	C         0.961458016316      0.894123635438      0.893027700471     
C 	C         0.375980455951      0.37092470932       0.11230747123      
C 	C         0.522705603642      0.567831671761      0.392527012916     
C 	C         0.577448918275      0.549935923627      0.206540342942     
C 	C         0.813470484049      0.675420336707      0.134629213952     
O 	O         0.935338991177      0.807240583698      0.261316341991     
C 	C         0.250177545584      0.2941858142        0.587318309892     
C 	C         0.0483944691731     0.107584552459      0.590442073995     
C 	C         0.939497347511      0.0229300017011     0.755744963227     
C 	C         0.050794976183      0.122959238703      0.939122804928     
C 	C         0.257756325238      0.313409031039      0.945621707471     
C 	C         0.351185966081      0.399960248129      0.767314644185     
C 	C         0.999266373138      0.99773544794       0.453781315056     
H 	H         0.531256886636      0.610547118418      0.769549530871     
H 	H         0.0545145624374     0.795177588936      0.0242926379895    
H 	H         0.886391239341      0.726919003585      0.793158323465     
H 	H         0.621484139134      0.679789769977      0.517612100516     
H 	H         0.845193849743      0.626436395678      0.983317481927     
H 	H         0.932664744214      0.0301649000372     0.452449651236     
H 	H         0.772460564709      0.880836310229      0.746824870774     
H 	H         0.966904959521      0.0836353895423 
29	293838     
H 	H         0.346538212849      0.42212731384       0.0832265924532    
H 	H         0.510331255571      0.547588647744      0.781889019462     
H 	H         0.819046153744      0.980096342437      0.500418603682     
H 	H         0.0522986102031     0.786217066613      0.4326777482       
H 	H         0.981259545958      0.145352912         0.33083657451      
Cl	Cl        0.674742626772      0.0603366453982     0.964152369998     
C 	C         0.861428155404      0.0229660428867     0.259181980915     
C 	C         0.7362142277        0.132005488831      0.402567679054     
C 	C         0.589851811521      0.357411307938      0.310392529865     
C 	C         0.434622834923      0.578998596089      0.393295295159     
C 	C         0.802201495827      0.0561481150453     0.607632579053     
C 	C         0.954271687741      0.864456744075      0.888403801001     
C 	C         0.934194930973      0.809003858617      0.694573972003     
C 	C         0.0167270532248     0.533019872909      0.606565863866     
O 	O         0.116435876695      0.379459199867      0.73092401511      
C 	C         0.742909806314      0.198059602574      0.0896196688376    
C 	C         0.602753620254      0.445088784107      0.0992124671357    
C 	C         0.538921059261      0.573915788128      0.26924354312      
C 	C         0.610880625776      0.435295778066      0.448492871289     
C 	C         0.753652867978      0.181904727302      0.448253953623     
C 	C         0.82133353716       0.0701226521585     0.267243617825     
C 	C         0.528449842308      0.530360293007      0.959917197797     
H 	H         0.00047282645893    0.858720176913      0.269371553563     
H 	H         0.332906743701      0.486942643931      0.504145120229     
H 	H         0.297119970921      0.684988560607      0.28688764666      
H 	H         0.0392961457733     0.739000529508      0.0120420100184    
H 	H         0.971439511928      0.50650332941       0.447182661489     
H 	H         0.550764914577      0.585023848962      0.967905905842     
H 	H         0.434066663389      0.776983596131      0.26684875975      
H 	H         0.584626149602      0.531122299456      0.587398794218     
H 	H         0.836883231975      0.0677302893521     0.585272037952     
H 	H         0.932024549339      0.874981030316      0.276731660547     
H 	H         0.535010658619      0.731147011806      0.0261369184187    
H 	H         0.334096682066      0.49929996212       0.912887691714     
H 	H         0.663733563235      0.533068209917      0.853036546109     
Cl	Cl        0.617708865759      0.873454050014      0.513665438046     
C 	C         0.390673367226      0.493728973457      0.259191166989     
C 	C         0.265449323982      0.602772224767      0.402570026804     
C 	C         0.11908426157       0.828168960365      0.310385445283     
C 	C         0.963844700531      0.0497560251677     0.393277866314     
C 	C         0.331429600259      0.526927463129      0.607637769936     
C 	C         0.48349291296       0.335255166316      0.888416843771     
C 	C         0.463426455925      0.279791597234      0.694588814027     
C 	C         0.545970571527      0.00380544217827 
90	90041      
O 	O         0.645678383321      0.850254164032      0.730954893387     
C 	C         0.272111702804      0.668862321874      0.0896173894666    
C 	C         0.131947649884      0.91588790239       0.0991998944682    
C 	C         0.0681034828645     0.044721895453      0.269225113661     
C 	C         0.140058993333      0.906113327637      0.448479219972     
C 	C         0.282838861655      0.652726441663      0.448250791716     
C 	C         0.350531186329      0.540936918145      0.267246011926     
C 	C         0.0576932774937     0.00109789310811 
66	66582      
H 	H         0.529722715207      0.329487706326      0.269388723133     
H 	H         0.862125625636      0.957702871303      0.50412694525      
H 	H         0.826343170137      0.155736424153      0.286864245784     
H 	H         0.568515552717      0.209807879505      0.0120600752476    
H 	H         0.500690845964      0.977279271731      0.447207600365     
H 	H         0.0799608609888     0.055814606536      0.967888835432     
H 	H         0.963243136149      0.247786510865      0.266822188601     
H 	H         0.11379541021       0.0019463162296     0.587381292748     
H 	H         0.366066476917      0.538561575907      0.585273492756     
H 	H         0.46122763265       0.345799029121      0.276742109309     
H 	H         0.0642455641082     0.201888252921      0.0261197487238    
H 	H         0.863342259249      0.970029426544      0.91287184991      
H 	H         0.192982411275      0.00380420062849    0.85302879782      
Cl	Cl        0.146917930093      0.344223105059      0.513644519828     
C 	C         0.873932912887      0.906311723578      0.760492651966     
C 	C         0.790839311535      0.755971379015      0.908293141238     
C 	C         0.610593638436      0.563789636741      0.8125665594       
C 	C         0.432237502998      0.364879581301      0.893045279474     
C 	C         0.846753341291      0.841706021871      0.112302226923     
C 	C         0.993484784248      0.0386322793798     0.392513874348     
C 	C         0.0482196750594     0.0207289366262     0.206525337829     
C 	C         0.284232834417      0.146217774208      0.134604159215     
O 	O         0.406102586712      0.278048647079      0.261285081447     
C 	C         0.72097573562       0.764987003647      0.587320675711     
C 	C         0.519199601597      0.578378987955      0.590454853591     
C 	C         0.410313407539      0.493729123402      0.755763687444     
C 	C         0.521615993507      0.593771510768      0.939136706676     
C 	C         0.728570707415      0.784228724436      0.945624997259     
C 	C         0.821988820729      0.870774063237      0.767312300581     
C 	C         0.470021791365      0.468470323194      0.45379313221      
H 	H         0.00200541826025    0.0813162977978     0.769532190321     
H 	H         0.525302904888      0.265943406934      0.0243108914779    
H 	H         0.357171640635      0.197667292596      0.793181889888     
H 	H         0.0922652203527     0.150600130845      0.517593899592     
H 	H         0.315950488949      0.0972272155178     0.983292163428     
H 	H         0.403466359952      0.500948344257      0.452466985753     
H 	H         0.243281441611      0.351629255101      0.746851837169     
H 	H         0.437733839334      0.554451552665      0.0720024541407    
H 	H         0.81735523143       0.892957055489      0.0832252341615    
H 	H         0.981129420801      0.0184086572131     0.781878528338     
H 	H         0.289805141473      0.450827417944      0.50043599831      
H 	H         0.523059452796      0.256952684482      0.43269359629      
H 	H         0.452004624327      0.616080909971      0.330844433114     
Cl	Cl        0.145521532678      0.531086389554      0.96417369306      
Fe	Fe        2.77555756156e-17   0.439805868935      0.750694444444     
Fe	Fe        6.93889390391e-18   0.560194131065      0.250694444444     
N 	N         0.730463634258      0.294044637635      0.121286444444     
N 	N         0.730463634258      0.705955362365      0.621286444444     
N 	N         0.269536365742      0.294044637635      0.380102444444     
N 	N         0.269536365742      0.705955362365      0.880102444444     
N 	N         0.818758519167      0.162939534322      0.968745444444     
N 	N         0.818758519167      0.837060465678      0.468745444444     
N 	N         0.181241480833      0.162939534322      0.532643444444     
N 	N         0.181241480833      0.837060465678      0.0326434444444    
Fe	Fe        0.5       0.939805868935      0.750472222222      
Fe	Fe        0.5       0.060194131065      0.250472222222      
N 	N         0.230463634258      0.794044637635      0.121064222222     
N 	N         0.230463634258      0.205955362365      0.621064222222     
N 	N         0.769536365742      0.794044637635      0.379880222222     
N 	N         0.769536365742      0.205955362365      0.879880222222     
N 	N         0.318758519167      0.662939534322      0.968523222222     
N 	N         0.318758519167      0.337060465678      0.468523222222     
N 	N         0.681241480833      0.662939534322      0.532421222222     
N 	N         0.681241480833      0.337060465678      0.0324212222222
