
##########################################################################
#               Crystallographic Information Format file 
#               Produced by PyCifRW module
# 
#  This is a CIF file.  CIF has been adopted by the International
#  Union of Crystallography as the standard for data archiving and 
#  transmission.
#
#  For information on this file format, follow the CIF links at
#  http://www.iucr.org
##########################################################################

data_ZEOPP

_cell_length_a                          26.8388999845
_cell_length_b                          23.8491053899
_cell_length_c                          6.9533
_cell_angle_alpha                       90
_cell_angle_beta                        97.343
_cell_angle_gamma                       90
_symmetry_space_group_name_H-M          P1
_symmetry_Int_Tables_number             1
_symmetry_cell_setting                  Monoclinic
loop_
  _symmetry_equiv_pos_as_xyz
         '+x,+y,+z' 
loop_
  _atom_site_label
  _atom_site_type_symbol
  _atom_site_fract_x
  _atom_site_fract_y
  _atom_site_fract_z
         C0        C         0.269983  0.228378  0.496878  
         C1        C         0.276527  0.192399  0.339366  
         C2        C         0.317214  0.154899  0.351258  
         C3        C         0.353086  0.151935  0.518791  
         C4        C         0.346651  0.187509  0.67655   
         C5        C         0.305928  0.225131  0.665159  
         F6        F         0.321107  0.120738  0.200132  
         H7        H         0.250156  0.193317  0.207273  
         H8        H         0.373166  0.186587  0.808244  
         H9        H         0.30237   0.251838  0.789153  
         C10       C         0.395056  0.112763  0.531098  
         C11       C         0.407718  0.07114   0.662623  
         C12       C         0.433001  0.105168  0.420712  
         C13       C         0.444393  0.138269  0.251558  
         O14       O         0.479681  0.121243  0.162418  
         O15       O         0.419729  0.182142  0.202749  
         H16       H         0.388392  0.059863  0.78439   
         F17       F         0.282518  0.346495  0.541492  
         C18       C         0.235475  0.326163  0.50988   
         C19       C         0.227727  0.267749  0.486715  
         C20       C         0.17727   0.249724  0.455082  
         N21       N         0.165278  0.197125  0.43512   
         S22       S         0.102243  0.197765  0.401108  
         N23       N         0.092171  0.267007  0.414986  
         C24       C         0.137075  0.288022  0.445111  
         C25       C         0.145297  0.346111  0.466383  
         C26       C         0.195748  0.364313  0.500523  
         H27       H         0.204529  0.408577  0.519453  
         C28       C         0.104616  0.387188  0.459096  
         C29       C         0.06568   0.389684  0.567087  
         C30       C         0.092993  0.433741  0.348492  
         C31       C         0.119022  0.456362  0.189974  
         O32       O         0.15568   0.430225  0.136217  
         O33       O         0.102885  0.501829  0.112285  
         H34       H         0.057911  0.360831  0.679586  
         C35       C         0.773573  0.267243  0.011642  
         C36       C         0.824403  0.249436  0.046607  
         C37       C         0.863859  0.28838   0.051424  
         C38       C         0.854459  0.346268  0.020414  
         C39       C         0.803885  0.364303  0.986328  
         C40       C         0.764256  0.325404  0.981416  
         F41       F         0.911327  0.269641  0.089732  
         H42       H         0.833552  0.205422  0.070218  
         H43       H         0.79487   0.408334  0.962268  
         H44       H         0.725954  0.340892  0.954339  
         C45       C         0.895452  0.386578  0.026686  
         C46       C         0.90508   0.432317  0.143039  
         C47       C         0.935433  0.391236  0.924893  
         C48       C         0.948109  0.35593   0.762866  
         O49       O         0.989168  0.36562   0.698262  
         O50       O         0.918084  0.318358  0.692531  
         H51       H         0.883227  0.447128  0.253215  
         F52       F         0.699674  0.253055  0.682771  
         C53       C         0.695953  0.221341  0.840097  
         C54       C         0.731977  0.227124  0.006134  
         C55       C         0.725298  0.192562  0.165542  
         N56       N         0.755313  0.194669  0.32731   
         S57       S         0.731898  0.146452  0.466947  
         N58       N         0.682686  0.124278  0.312409  
         C59       C         0.685262  0.154113  0.157984  
         C60       C         0.649963  0.148346  0.991138  
         C61       C         0.656118  0.183361  0.831979  
         H62       H         0.629915  0.181158  0.699581  
         C63       C         0.607566  0.109382  0.978167  
         C64       C         0.570648  0.104949  0.095103  
         C65       C         0.59196   0.067216  0.852205  
         C66       C         0.615945  0.046397  0.685761  
         O67       O         0.657394  0.066507  0.651831  
         O68       O         0.593553  0.008178  0.582706  
         H69       H         0.566313  0.130118  0.221353  
         C70       C         0.273581  0.767249  0.012598  
         C71       C         0.324392  0.749422  0.048508  
         C72       C         0.363874  0.788388  0.055132  
         C73       C         0.354521  0.846321  0.02506   
         C74       C         0.303965  0.864374  0.99004   
         C75       C         0.26431   0.825453  0.983317  
         F76       F         0.411314  0.769621  0.094275  
         H77       H         0.333507  0.705375  0.071457  
         H78       H         0.294985  0.908438  0.966646  
         H79       H         0.226023  0.840957  0.955571  
         C80       C         0.395538  0.886651  0.033206  
         C81       C         0.404971  0.932199  0.15062   
         C82       C         0.435732  0.891512  0.932646  
         C83       C         0.448704  0.856491  0.770393  
         O84       O         0.489911  0.866323  0.707117  
         O85       O         0.418776  0.819017  0.698584  
         H86       H         0.382906  0.946805  0.260419  
         F87       F         0.200197  0.753562  0.681806  
         C88       C         0.196196  0.721579  0.838257  
         C89       C         0.231958  0.727108  0.005203  
         C90       C         0.224994  0.692271  0.163601  
         N91       N         0.25475   0.694127  0.326051  
         S92       S         0.231068  0.645655  0.463984  
         N93       N         0.182086  0.623706  0.307854  
         C94       C         0.184936  0.653804  0.154233  
         C95       C         0.1499    0.648294  0.986498  
         C96       C         0.156342  0.683583  0.828344  
         H97       H         0.130349  0.681585  0.695336  
         C98       C         0.107489  0.60932   0.971649  
         C99       C         0.070335  0.604659  0.087423  
         C100      C         0.092091  0.567355  0.84455   
         C101      C         0.116388  0.546838  0.678469  
         O102      O         0.157933  0.567038  0.646058  
         O103      O         0.094159  0.508777  0.574158  
         H104      H         0.065775  0.62961   0.213947  
         C105      C         0.76995   0.728408  0.495916  
         C106      C         0.776209  0.692703  0.337383  
         C107      C         0.816879  0.655216  0.347469  
         C108      C         0.853014  0.651997  0.514142  
         C109      C         0.846864  0.687297  0.672911  
         C110      C         0.806159  0.724904  0.66333   
         F111      F         0.820502  0.621315  0.195433  
         H112      H         0.749631  0.693823  0.205889  
         H113      H         0.873587  0.686173  0.804002  
         H114      H         0.802823  0.751398  0.788054  
         C115      C         0.894966  0.612838  0.524577  
         C116      C         0.907846  0.571003  0.655047  
         C117      C         0.932683  0.605462  0.412954  
         C118      C         0.943769  0.638859  0.244023  
         O119      O         0.978868  0.622014  0.153545  
         O120      O         0.919044  0.682794  0.196697  
         H121      H         0.88875   0.559504  0.777195  
         F122      F         0.782559  0.846457  0.542601  
         C123      C         0.735501  0.826141  0.511788  
         C124      C         0.727716  0.767761  0.487638  
         C125      C         0.677248  0.749749  0.45694   
         N126      N         0.665228  0.697175  0.436223  
         S127      S         0.60219   0.697822  0.403847  
         N128      N         0.592155  0.76703   0.419385  
         C129      C         0.637073  0.788031  0.448779  
         C130      C         0.645328  0.846089  0.471015  
         C131      C         0.695795  0.864274  0.504227  
         H132      H         0.704604  0.908512  0.523827  
         C133      C         0.604673  0.887145  0.465609  
         C134      C         0.565962  0.889425  0.574759  
         C135      C         0.592868  0.933875  0.356148  
         C136      C         0.618596  0.956786  0.197271  
         O137      O         0.655126  0.93077   0.141986  
         O138      O         0.602339  0.002371  0.120849  
         H139      H         0.558395  0.860375  0.686978  
         Fe140     Fe        1.0       0.488136  0.75      
         Fe141     Fe        1.0       0.511864  0.25      
         N142      N         0.946875  0.459407  0.120592  
         N143      N         0.946875  0.540593  0.620592  
         N144      N         0.053125  0.459407  0.379408  
         N145      N         0.053125  0.540593  0.879408  
         N146      N         0.964278  0.433567  0.968051  
         N147      N         0.964278  0.566433  0.468051  
         N148      N         0.035722  0.433567  0.531949  
         N149      N         0.035722  0.566433  0.031949  
         Fe150     Fe        0.5       0.988136  0.759305  
         Fe151     Fe        0.5       0.011864  0.259305  
         N152      N         0.446875  0.959407  0.129897  
         N153      N         0.446875  0.040593  0.629897  
         N154      N         0.553125  0.959407  0.388713  
         N155      N         0.553125  0.040593  0.888713  
         N156      N         0.464278  0.933567  0.977356  
         N157      N         0.464278  0.066433  0.477356  
         N158      N         0.535722  0.933567  0.541254  
         N159      N         0.535722  0.066433  0.041254 