
##########################################################################
#               Crystallographic Information Format file 
#               Produced by PyCifRW module
# 
#  This is a CIF file.  CIF has been adopted by the International
#  Union of Crystallography as the standard for data archiving and 
#  transmission.
#
#  For information on this file format, follow the CIF links at
#  http://www.iucr.org
##########################################################################

data_ZEOPP

_cell_length_a                          5.23264639245
_cell_length_b                          4.64974106068
_cell_length_c                          6.9533
_cell_angle_alpha                       90
_cell_angle_beta                        97.343
_cell_angle_gamma                       90
_symmetry_space_group_name_H-M          P1
_symmetry_Int_Tables_number             1
_symmetry_cell_setting                  Monoclinic
loop_
  _symmetry_equiv_pos_as_xyz
         '+x,+y,+z' 
loop_
  _atom_site_label
  _atom_site_type_symbol
  _atom_site_fract_x
  _atom_site_fract_y
  _atom_site_fract_z
         C0        C         0.393425  0.492441  0.746976  
         C1        C         0.331005  0.346333  0.904051  
         C2        C         0.200941  0.116319  0.814483  
         C3        C         0.075555  0.868566  0.901875  
         C4        C         0.377656  0.410543  0.104765  
         C5        C         0.498878  0.599743  0.380996  
         C6        C         0.534561  0.625772  0.191982  
         C7        C         0.705667  0.828748  0.121192  
         O8        O         0.784133  0.049013  0.205172  
         C9        C         0.270762  0.311027  0.584451  
         C10       C         0.097461  0.075615  0.59278   
         C11       C         0.015017  0.981947  0.767149  
         C12       C         0.103006  0.12078   0.941996  
         C13       C         0.273391  0.353239  0.94132   
         C14       C         0.355345  0.446247  0.76654   
         C15       C         0.072901  0.941334  0.470154  
         H16       H         0.491509  0.695532  0.740925  
         H17       H         0.190432  0.797042  0.035753  
         H18       H         0.055256  0.683002  0.804609  
         H19       H         0.589088  0.731152  0.498905  
         H20       H         0.774712  0.777714  0.982742  
         H21       H         0.023809  0.961385  0.461168  
         H22       H         0.883018  0.801957  0.766202  
         H23       H         0.039732  0.049025  0.076646  
         H24       H         0.342298  0.46189   0.076044  
         H25       H         0.487001  0.627064  0.775354  
         H26       H         0.869422  0.912904  0.487252  
         H27       H         0.175281  0.735621  0.481851  
         H28       H         0.090193  0.041563  0.329973  
         Cl29      Cl        0.762339  0.964035  0.953363  
         C30       C         0.892281  0.011308  0.245704  
         C31       C         0.810751  0.144736  0.401102  
         C32       C         0.689899  0.380862  0.312332  
         C33       C         0.556903  0.623568  0.39905   
         C34       C         0.843568  0.071353  0.600607  
         C35       C         0.940806  0.866244  0.874746  
         C36       C         0.939865  0.815876  0.682528  
         C37       C         0.016084  0.549874  0.603443  
         O38       O         0.15385   0.369     0.692619  
         C39       C         0.827438  0.231187  0.088232  
         C40       C         0.725298  0.513862  0.102779  
         C41       C         0.695047  0.642209  0.281712  
         C42       C         0.766222  0.492221  0.455092  
         C43       C         0.867609  0.213936  0.448387  
         C44       C         0.897565  0.086379  0.269061  
         C45       C         0.605556  0.584843  0.97182   
         H46       H         0.00506   0.817974  0.240945  
         H47       H         0.448626  0.546894  0.5134    
         H48       H         0.418286  0.730545  0.291425  
         H49       H         0.003764  0.716743  0.990275  
         H50       H         0.939645  0.504273  0.452262  
         H51       H         0.667619  0.638692  0.97256   
         H52       H         0.616545  0.85773   0.28544   
         H53       H         0.743129  0.590673  0.593255  
         H54       H         0.923239  0.096477  0.581953  
         H55       H         0.977064  0.870921  0.273317  
         H56       H         0.681045  0.798554  0.013327  
         H57       H         0.394805  0.582589  0.956112  
         H58       H         0.672969  0.517892  0.836028  
         Cl59      Cl        0.783309  0.886498  0.497756  
         C60       C         0.378803  0.524797  0.245697  
         C61       C         0.297276  0.658215  0.401099  
         C62       C         0.176417  0.894343  0.312337  
         C63       C         0.043419  0.13704   0.399063  
         C64       C         0.3301    0.584822  0.600604  
         C65       C         0.42735   0.3797    0.874736  
         C66       C         0.426404  0.329343  0.682517  
         C67       C         0.502625  0.063347  0.603424  
         O68       O         0.640398  0.882473  0.692594  
         C69       C         0.313982  0.744629  0.088234  
         C70       C         0.211837  0.0273    0.102789  
         C71       C         0.18159   0.155636  0.281726  
         C72       C         0.252773  0.00564   0.455101  
         C73       C         0.354165  0.727358  0.448388  
         C74       C         0.384118  0.599812  0.269058  
         C75       C         0.092059  0.09834   0.971831  
         H76       H         0.491585  0.331467  0.240932  
         H77       H         0.935148  0.060356  0.513413  
         H78       H         0.904798  0.244018  0.291443  
         H79       H         0.490314  0.230195  0.990262  
         H80       H         0.426183  0.017753  0.452243  
         H81       H         0.154153  0.152135  0.972574  
         H82       H         0.103084  0.371154  0.28546   
         H83       H         0.229682  0.104084  0.593268  
         H84       H         0.409801  0.609894  0.581951  
         H85       H         0.46362   0.384357  0.273308  
         H86       H         0.167546  0.31205   0.013341  
         H87       H         0.881309  0.096081  0.956126  
         H88       H         0.15947   0.031398  0.836035  
         Cl89      Cl        0.269823  0.39997   0.497772  
         C90       C         0.906895  0.005936  0.746983  
         C91       C         0.844478  0.859815  0.904053  
         C92       C         0.714427  0.629798  0.814478  
         C93       C         0.58905   0.382032  0.901863  
         C94       C         0.891122  0.924015  0.104769  
         C95       C         0.012331  0.113205  0.381005  
         C96       C         0.048017  0.139248  0.191992  
         C97       C         0.219115  0.342239  0.121209  
         O98       O         0.297569  0.562504  0.205195  
         C99       C         0.784222  0.824463  0.584451  
         C100      C         0.610932  0.58904   0.592771  
         C101      C         0.528488  0.495355  0.767137  
         C102      C         0.616467  0.634183  0.941987  
         C103      C         0.786842  0.866653  0.941319  
         C104      C         0.868796  0.959677  0.766543  
         C105      C         0.586402  0.454827  0.470144  
         H106      H         0.004971  0.209034  0.740938  
         H107      H         0.703927  0.310507  0.03574   
         H108      H         0.568761  0.196472  0.804592  
         H109      H         0.102533  0.244613  0.498918  
         H110      H         0.288165  0.291219  0.98276   
         H111      H         0.537288  0.474813  0.461156  
         H112      H         0.396496  0.315357  0.766184  
         H113      H         0.553193  0.562415  0.076635  
         H114      H         0.855742  0.975299  0.076047  
         H115      H         0.000444  0.140501  0.775363  
         H116      H         0.382924  0.426383  0.48724   
         H117      H         0.688791  0.24912   0.481838  
         H118      H         0.603692  0.555065  0.329966  
         Cl119     Cl        0.275827  0.477478  0.953349  
         Fe120     Fe        0.0       0.439148  0.750472  
         Fe121     Fe        1.0       0.560852  0.250472  
         N122      N         0.727517  0.291793  0.121064  
         N123      N         0.727517  0.708207  0.621064  
         N124      N         0.272483  0.291793  0.37988   
         N125      N         0.272483  0.708207  0.87988   
         N126      N         0.816777  0.159255  0.968523  
         N127      N         0.816777  0.840745  0.468523  
         N128      N         0.183223  0.159255  0.532421  
         N129      N         0.183223  0.840745  0.032421  
         Fe130     Fe        0.5       0.939148  0.750694  
         Fe131     Fe        0.5       0.060852  0.250694  
         N132      N         0.227517  0.791793  0.121286  
         N133      N         0.227517  0.208207  0.621286  
         N134      N         0.772483  0.791793  0.380102  
         N135      N         0.772483  0.208207  0.880102  
         N136      N         0.316777  0.659255  0.968745  
         N137      N         0.316777  0.340745  0.468745  
         N138      N         0.683223  0.659255  0.532643  
         N139      N         0.683223  0.340745  0.032643 