
##########################################################################
#               Crystallographic Information Format file 
#               Produced by PyCifRW module
# 
#  This is a CIF file.  CIF has been adopted by the International
#  Union of Crystallography as the standard for data archiving and 
#  transmission.
#
#  For information on this file format, follow the CIF links at
#  http://www.iucr.org
##########################################################################

data_ZEOPP

_cell_length_a                          57.9868716814
_cell_length_b                          51.5272613541
_cell_length_c                          6.9533
_cell_angle_alpha                       90
_cell_angle_beta                        97.343
_cell_angle_gamma                       90
_symmetry_space_group_name_H-M          P1
_symmetry_Int_Tables_number             1
_symmetry_cell_setting                  Monoclinic
loop_
  _symmetry_equiv_pos_as_xyz
         '+x,+y,+z' 
loop_
  _atom_site_label
  _atom_site_type_symbol
  _atom_site_fract_x
  _atom_site_fract_y
  _atom_site_fract_z
         C0        C         0.418738399328      0.083227364712      0.651456610709     
         C1        C         0.376711423293      0.117908290466      0.0320359137031    
         C2        C         0.411679848595      0.0775915985349     0.48264725864      
         C3        C         0.311215249517      0.181704880047      0.97244745998      
         C4        C         0.282243973276      0.216620760377      0.568238344618     
         C5        C         0.216748157185      0.280417152822      0.508664270195     
         C6        C         0.180221996484      0.309299124615      0.85328676999      
         C7        C         0.209192009558      0.274384506828      0.257497723509     
         C8        C         0.274689088815      0.21058685184       0.317069959775     
         C9        C         0.187776880945      0.315333033152      0.104455154833     
         C10       C         0.122280707169      0.379129622733      0.0448667011091    
         C11       C         0.0873110187003     0.419447577207      0.59425719433      
         C12       C         0.0802537311341     0.413810548487      0.425446004103     
         C13       C         0.172665848856      0.303266478621      0.602120223305     
         C14       C         0.201637125096      0.268350598291 
          0.00632933866716    
         C15       C         0.165110964395      0.297232570084      0.350951838463     
         C16       C         0.194081882951      0.26231688689       0.755146574525     
         C17       C         0.157556079933      0.291198661547      0.0997834536206    
         C18       C         0.186525735323      0.256284240896      0.50398002784      
         C19       C         0.149999932306      0.285166015553      0.848616906936     
         C20       C         0.252023172265      0.192486388772      0.563566643406     
         C21       C         0.288549332967      0.163604416979      0.21894414361      
         C22       C         0.280993185339      0.157571770984      0.967777596925     
         C23       C         0.178970850862      0.250250332359      0.252811642997     
         C24       C         0.0845037585299     0.348962605134      0.789028453212     
         H25       H         0.415417356579      0.0879800696587     0.78945487618      
         H26       H         0.406646048868      0.0809769392363     0.337048314111     
         H27       H         0.485246691374      0.00742820039012 
          0.688423234844      
         H28       H         0.289782976003      0.210659511956      0.703507671992     
         H29       H         0.166703514036      0.322466834404      0.840989820712     
         H30       H         0.280668568536      0.203380390473      0.194097581679     
         H31       H         0.195593320311      0.309152443398      0.244705545496     
         H32       H         0.181577026018      0.322805033674      0.23195443658      
         H33       H         0.0923446921106     0.416062362759      0.739856322674     
         H34       H         0.0137440138358     0.489611121319      0.388479964011     
         H35       H         0.0835749001994     0.409057717286      0.287447554816     
         H36       H         0.158649554563      0.316919068897      0.58936911439      
         H37       H         0.164849409489      0.309447068375      0.461869832642     
         H38       H         0.215653419389      0.254698008015      0.0190804475827    
         H39       H         0.207836853706      0.260878724023      0.878830240735     
         H40       H         0.15109470587       0.310885140646      0.338202167477     
         H41       H         0.157294398712      0.303413286093      0.210701631616     
         H42       H         0.208098141475      0.248664316328      0.76789624551      
         H43       H         0.200281449475      0.254845158591      0.627646222479     
         H44       H         0.143539857177      0.304851212396      0.0870352205651    
         H45       H         0.149739387934      0.29737950381       0.959533430589     
         H46       H         0.192725428164      0.248812386342      0.376479491978     
         H47       H         0.142183492939      0.291346605307      0.708366516273     
         H48       H         0.266039430789      0.17883381821       0.576316314391     
         H49       H         0.302565591491      0.149951846417      0.231693814596     
         H50       H         0.282349640125      0.171076271532      0.346444679472     
         H51       H         0.29636589865       0.15742370097       0.359194350457     
         H52       H         0.273176619656      0.163752486993      0.827527390078     
         H53       H         0.295009443863      0.143919200422      0.98052726791      
         H54       H         0.28719287818       0.150099916431      0.840277061063     
         H55       H         0.171154285178      0.256431048368      0.11256143615      
         H56       H         0.192987109386      0.236597761797      0.265561313983     
         H57       H         0.185170543703      0.242778477805      0.125311107136     
         H58       H         0.0783039036035     0.356434605656      0.91652773496      
         H59       H         0.0766873191635     0.355143194888      0.648778062549     
         H60       H         0.0704874284686     0.362615215123      0.776275906367     
         C61       C         0.921757488892      0.419791864846      0.151607147309     
         C62       C         0.879734754798      0.385115026262      0.532156204004     
         C63       C         0.914707479633      0.425435930421      0.982805563186     
         C64       C         0.814238532148      0.321318330412      0.472509684605     
         C65       C         0.785262659785      0.286397954828      0.0682673777073    
         C66       C         0.719766794717      0.222601456015 
          0.00863523775656    
         C67       C         0.683245181241      0.193723873182      0.353232862257     
         C68       C         0.712219790414      0.2286429862        0.757477006156     
         C69       C         0.777716918672      0.29244074758       0.817107309106     
         C70       C         0.690790922354      0.187681080431      0.604392930859     
         C71       C         0.625294699704      0.123884384581      0.54474641146      
         C72       C         0.59032071168       0.0835622178566     0.094098889279     
         C73       C         0.58327196561       0.0892075459967     0.925295468155     
         C74       C         0.675698176938      0.199765403368      0.102074630657     
         C75       C         0.704674049301      0.234685778952      0.506316937555     
         C76       C         0.668152435825      0.20580819612       0.850914562056     
         C77       C         0.697127950607      0.240728374667      0.255142489506     
         C78       C         0.660606694712      0.211850988871      0.599754493454     
         C79       C         0.689580946304      0.246769904852 
          0.00398425790583    
         C80       C         0.653059690409      0.217892519057      0.348596261854     
         C81       C         0.755078432143      0.310567863268      0.0636289403031    
         C82       C         0.79160004562       0.339445446101      0.719031315802     
         C83       C         0.784053041317      0.345486976286      0.467873084202     
         C84       C         0.682035205191      0.252812697604      0.752824189304     
         C85       C         0.58756346776       0.154095823207      0.288949742456     
         H86       H         0.918435406782      0.415038146247      0.289600766922     
         H87       H         0.909674713028      0.422051589812      0.837203857518     
         H88       H         0.988273356418      0.495598455215      0.18864508478      
         H89       H         0.792800723969      0.292358297372      0.203541839353     
         H90       H         0.669726688689      0.180556141444      0.340923928134     
         H91       H         0.78369734704       0.299648136774      0.694141781584     
         H92       H         0.698606388615      0.193860730949      0.744648644697     
         H93       H         0.684590083857      0.180208117925      0.731885109615     
         H94       H         0.595353351966      0.0869464322085     0.239700778647     
         H95       H         0.516754672818      0.0133995471021     0.888258113441     
         H96       H         0.586594174039      0.0939613908528     0.787301664842     
         H97       H         0.661681872179      0.186112790344      0.0893110955757    
         H98       H         0.667882710676      0.19358575285       0.961818916819     
         H99       H         0.71869035406       0.248338391976      0.519080472637     
         H100      H         0.710874761479      0.242158615201      0.378824942498     
         H101      H         0.654136166824      0.192155602799      0.838152464919     
         H102      H         0.660336843244      0.199628419345      0.710659031918     
         H103      H         0.711144219607      0.254380967987      0.267904586643     
         H104      H         0.703328500708      0.248201064956      0.127649240205     
         H105      H         0.646590461469      0.198198415254      0.586993834263     
         H106      H         0.652790975812      0.20567108584       0.459499147016     
         H107      H         0.695781622724      0.254242721398      0.876490824904     
         H108      H         0.645244224148      0.211712868539      0.208340548016     
         H109      H         0.769094701144      0.324220456589      0.0763910374398    
         H110      H         0.80561631462       0.353098039421      0.731793412939     
         H111      H         0.7853993692        0.331972629555      0.846524748804     
         H112      H         0.7994156382        0.345625222875      0.859286845941     
         H113      H         0.776237448736      0.339307199512      0.327617554064     
         H114      H         0.798069310318      0.359139569607      0.480635181339     
         H115      H         0.790253717737      0.352959792832      0.340379651201     
         H116      H         0.67421961261       0.246632920829      0.612568659166     
         H117      H         0.696051474192      0.266465290924      0.765586286441     
         H118      H         0.688235881611      0.26028551415       0.625330756303     
         H119      H         0.581362629263      0.146622860701      0.416441921212     
         H120      H         0.579748001498      0.147916172689      0.148694028618     
         H121      H         0.573547127243      0.140443190479      0.27618476943      
         C122      C         0.418738399328      0.922809959368      0.151456610709     
         C123      C         0.376711423293      0.888129033615      0.532035913703     
         C124      C         0.411679848595      0.928445725545      0.98264725864      
         C125      C         0.311215249517      0.824332444033      0.47244745998      
         C126      C         0.282243973276      0.789416563703      0.0682383446176    
         C127      C         0.216748157185      0.725620171258 
          0.00866427019451    
         C128      C         0.180221996484      0.696738199465      0.35328676999      
         C129      C         0.209192009558      0.731652817253      0.757497723509     
         C130      C         0.274689088815      0.79545047224       0.817069959775     
         C131      C         0.187776880945      0.690704290928      0.604455154833     
         C132      C         0.122280707169      0.626907701347      0.544866701109     
         C133      C         0.0873110187003     0.586589746874      0.0942571943296    
         C134      C         0.0802537311341     0.592226775593      0.925446004103     
         C135      C         0.172665848856      0.702770845459      0.102120223305     
         C136      C         0.201637125096      0.73768672579       0.506329338667     
         C137      C         0.165110964395      0.708804753996      0.850951838463     
         C138      C         0.194081882951      0.74372043719       0.255146574525     
         C139      C         0.157556079933      0.714838662533      0.599783453621     
         C140      C         0.186525735323      0.749753083184 
          0.00398002783952    
         C141      C         0.149999932306      0.720871308527      0.348616906936     
         C142      C         0.252023172265      0.813550935308      0.0635666434058    
         C143      C         0.288549332967      0.842432907101      0.71894414361      
         C144      C         0.280993185339      0.848465553096      0.467777596925     
         C145      C         0.178970850862      0.755786991721      0.752811642997     
         C146      C         0.0845037585299     0.657074718946      0.289028453212     
         H147      H         0.415417356579      0.918057254422      0.28945487618      
         H148      H         0.406646048868      0.925060384844      0.837048314111     
         H149      H         0.485246691374      0.99860912369       0.188423234844     
         H150      H         0.289782976003      0.795377812124      0.203507671992     
         H151      H         0.166703514036      0.683570489676      0.340989820712     
         H152      H         0.280668568536      0.802656933607      0.694097581679     
         H153      H         0.195593320311      0.696884880682      0.744705545496     
         H154      H         0.181577026018      0.683232290407      0.73195443658      
         H155      H         0.0923446921106     0.589974961321      0.239856322674     
         H156      H         0.0137440138358     0.516426202761      0.888479964011     
         H157      H         0.0835749001994     0.596979606794      0.787447554816     
         H158      H         0.158649554563      0.689118255184      0.0893691143896    
         H159      H         0.164849409489      0.696590255705      0.961869832642     
         H160      H         0.215653419389      0.751339316065      0.519080447583     
         H161      H         0.207836853706      0.745158600057      0.378830240735     
         H162      H         0.15109470587       0.695152183434      0.838202167477     
         H163      H         0.157294398712      0.702624037988      0.710701631616     
         H164      H         0.208098141475      0.757373007752      0.26789624551      
         H165      H         0.200281449475      0.751192165489      0.127646222479     
         H166      H         0.143539857177      0.701186111685      0.587035220565     
         H167      H         0.149739387934      0.70865782027       0.459533430589     
         H168      H         0.192725428164      0.757224937738      0.876479491978     
         H169      H         0.142183492939      0.714690718773      0.208366516273     
         H170      H         0.266039430789      0.82720350587       0.0763163143913    
         H171      H         0.302565591491      0.856085477663      0.731693814596     
         H172      H         0.282349640125      0.834961052548      0.846444679472     
         H173      H         0.29636589865       0.84861362311       0.859194350457     
         H174      H         0.273176619656      0.842284837087      0.327527390078     
         H175      H         0.295009443863      0.862118123658      0.48052726791      
         H176      H         0.28719287818       0.855937407649      0.340277061063     
         H177      H         0.171154285178      0.749606275713      0.61256143615      
         H178      H         0.192987109386      0.769439562283      0.765561313983     
         H179      H         0.185170543703      0.763258846275      0.625311107136     
         H180      H         0.0783039036035     0.649602718425      0.41652773496      
         H181      H         0.0766873191635     0.650894129192      0.148778062549     
         H182      H         0.0704874284686     0.643422108957      0.276275906367     
         C183      C         0.921757488892      0.586245459234      0.651607147309     
         C184      C         0.879734754798      0.620922297818      0.0321562040039    
         C185      C         0.914707479633      0.58060139366       0.482805563186     
         C186      C         0.814238532148      0.684718993668      0.972509684605     
         C187      C         0.785262659785      0.719639369252      0.568267377707     
         C188      C         0.719766794717      0.783435868066      0.508635237757     
         C189      C         0.683245181241      0.812313450898      0.853232862257     
         C190      C         0.712219790414      0.77739433788       0.257477006156     
         C191      C         0.777716918672      0.713596576501      0.317107309106     
         C192      C         0.690790922354      0.818356243649      0.104392930859     
         C193      C         0.625294699704      0.882152939499      0.04474641146      
         C194      C         0.59032071168       0.922475106224      0.594098889279     
         C195      C         0.58327196561       0.916829778084      0.425295468155     
         C196      C         0.675698176938      0.806271920712      0.602074630657     
         C197      C         0.704674049301      0.771351545128      0.0063169375551    
         C198      C         0.668152435825      0.800229127961      0.350914562056     
         C199      C         0.697127950607      0.765308949413      0.755142489506     
         C200      C         0.660606694712      0.794186335209      0.0997544934544    
         C201      C         0.689580946304      0.759267419228      0.503984257906     
         C202      C         0.653059690409      0.788144805023      0.848596261854     
         C203      C         0.755078432143      0.695469460812      0.563628940303     
         C204      C         0.79160004562       0.66659187798       0.219031315802     
         C205      C         0.784053041317      0.660550347794      0.967873084202     
         C206      C         0.682035205191      0.753224626476      0.252824189304     
         C207      C         0.58756346776       0.851941500874      0.788949742456     
         H208      H         0.918435406782      0.590999177834      0.789600766922     
         H209      H         0.909674713028      0.583985734268      0.337203857518     
         H210      H         0.988273356418      0.510438868865      0.68864508478      
         H211      H         0.792800723969      0.713679026708      0.703541839353     
         H212      H         0.669726688689      0.825481182636      0.840923928134     
         H213      H         0.78369734704       0.706389187306      0.194141781584     
         H214      H         0.698606388615      0.812176593131      0.244648644697     
         H215      H         0.684590083857      0.825829206155      0.231885109615     
         H216      H         0.595353351966      0.919090891872      0.739700778647     
         H217      H         0.516754672818      0.992637776978      0.388258113441     
         H218      H         0.586594174039      0.912075933227      0.287301664842     
         H219      H         0.661681872179      0.819924533736      0.589311095576     
         H220      H         0.667882710676      0.81245157123       0.461818916819     
         H221      H         0.71869035406       0.757698932104      0.0190804726366    
         H222      H         0.710874761479      0.763878708879      0.878824942498     
         H223      H         0.654136166824      0.813881721281      0.338152464919     
         H224      H         0.660336843244      0.806408904735      0.210659031918     
         H225      H         0.711144219607      0.751656356093      0.767904586643     
         H226      H         0.703328500708      0.757836259124      0.627649240205     
         H227      H         0.646590461469      0.807838908826      0.0869938342625    
         H228      H         0.652790975812      0.80036623824       0.959499147016     
         H229      H         0.695781622724      0.751794602682      0.376490824904     
         H230      H         0.645244224148      0.794324455541      0.708340548016     
         H231      H         0.769094701144      0.681816867492      0.57639103744      
         H232      H         0.80561631462       0.652939284659      0.231793412939     
         H233      H         0.7853993692        0.674064694525      0.346524748804     
         H234      H         0.7994156382        0.660412101205      0.359286845941     
         H235      H         0.776237448736      0.666730124569      0.827617554064     
         H236      H         0.798069310318      0.646897754474      0.980635181339     
         H237      H         0.790253717737      0.653077531248      0.840379651201     
         H238      H         0.67421961261       0.759404403251      0.112568659166     
         H239      H         0.696051474192      0.739572033156      0.265586286441     
         H240      H         0.688235881611      0.745751809931      0.125330756303     
         H241      H         0.581362629263      0.859414463379      0.916441921212     
         H242      H         0.579748001498      0.858121151392      0.648694028618     
         H243      H         0.573547127243      0.865594133601      0.77618476943      
         Fe244     Fe        1.0       0.494508801893      0.750302497714      
         Fe245     Fe        1.0       0.505491198107      0.250302497714      
         N246      N         0.975411596528      0.481211761414      0.120894497714     
         N247      N         0.975411596528      0.518788238586      0.620894497714     
         N248      N         0.0245884034723     0.481211761414      0.379710497714     
         N249      N         0.0245884034723     0.518788238586      0.879710497714     
         N250      N         0.983466280536      0.469251723411      0.968353497714     
         N251      N         0.983466280536      0.530748276589      0.468353497714     
         N252      N         0.0165337194644     0.469251723411      0.532251497714     
         N253      N         0.0165337194644     0.530748276589      0.0322514977138    
         Fe254     Fe        0.5       0.994508801893      0.750255286923      
         Fe255     Fe        0.5       0.00549119810687    0.250255286923      
         N256      N         0.475411596528      0.981211761414      0.120847286923     
         N257      N         0.475411596528      0.0187882385859     0.620847286923     
         N258      N         0.524588403472      0.981211761414      0.379663286923     
         N259      N         0.524588403472      0.0187882385859     0.879663286923     
         N260      N         0.483466280536      0.969251723411      0.968306286923     
         N261      N         0.483466280536      0.0307482765892     0.468306286923     
         N262      N         0.516533719464      0.969251723411      0.532204286923     
         N263      N         0.516533719464      0.0307482765892 
          0.0322042869227 