
##########################################################################
#               Crystallographic Information Format file 
#               Produced by PyCifRW module
# 
#  This is a CIF file.  CIF has been adopted by the International
#  Union of Crystallography as the standard for data archiving and 
#  transmission.
#
#  For information on this file format, follow the CIF links at
#  http://www.iucr.org
##########################################################################

data_ZEOPP

_cell_length_a                          33.6292491311
_cell_length_b                          29.8830245343
_cell_length_c                          6.9533
_cell_angle_alpha                       90
_cell_angle_beta                        97.343
_cell_angle_gamma                       90
_symmetry_space_group_name_H-M          P1
_symmetry_Int_Tables_number             1
_symmetry_cell_setting                  Monoclinic
loop_
  _symmetry_equiv_pos_as_xyz
         '+x,+y,+z' 
loop_
  _atom_site_label
  _atom_site_type_symbol
  _atom_site_fract_x
  _atom_site_fract_y
  _atom_site_fract_z
         C0        C         0.076016  0.445726  0.341785  
         C1        C         0.423984  0.054274  0.689538  
         C2        C         0.053543  0.412358  0.588603  
         C3        C         0.446457  0.087641  0.442718  
         C4        C         0.082904  0.411583  0.471076  
         C5        C         0.417095  0.088417  0.560248  
         N6        N         0.042398  0.467603  0.379408  
         N7        N         0.457602  0.032397  0.651915  
         N8        N         0.028509  0.446981  0.531949  
         N9        N         0.471491  0.053019  0.499374  
         H10       H         0.091899  0.453015  0.242604  
         H11       H         0.408101  0.046985  0.78872   
         H12       H         0.050972  0.392247  0.692106  
         H13       H         0.449027  0.107753  0.339219  
         C14       C         0.388654  0.163889  0.505552  
         H15       H         0.414151  0.173263  0.475626  
         C16       C         0.382865  0.119817  0.559537  
         C17       C         0.345558  0.106105  0.603307  
         H18       H         0.341601  0.075979  0.640204  
         H19       H         0.288546  0.12709   0.622995  
         C20       C         0.314042  0.13646   0.593073  
         C21       C         0.319832  0.180535  0.539085  
         C22       C         0.357138  0.194249  0.495324  
         H23       H         0.361095  0.22437   0.458421  
         C24       C         0.277537  0.217952  0.521012  
         C25       C         0.245447  0.205524  0.575642  
         H26       H         0.236272  0.174114  0.601679  
         C27       C         0.283325  0.262023  0.467026  
         H28       H         0.308822  0.271396  0.437101  
         C29       C         0.251809  0.292383  0.456798  
         H30       H         0.255766  0.322504  0.419895  
         C31       C         0.214504  0.278669  0.50056   
         C32       C         0.208713  0.234595  0.554548  
         H33       H         0.183217  0.225223  0.584469  
         H34       H         0.211232  0.37155   0.418653  
         C35       C         0.185735  0.362177  0.448569  
         C36       C         0.179945  0.318105  0.502563  
         C37       C         0.142639  0.30439   0.546332  
         H38       H         0.138682  0.274267  0.58323   
         H39       H         0.085627  0.325377  0.566022  
         C40       C         0.111123  0.334748  0.5361    
         C41       C         0.116913  0.378822  0.482111  
         C42       C         0.15422   0.392536  0.438344  
         H43       H         0.158176  0.422658  0.401448  
         C44       C         0.575609  0.054343  0.867458  
         C45       C         0.924391  0.445657  0.163865  
         C46       C         0.554065  0.088623  0.114467  
         C47       C         0.945935  0.411377  0.916856  
         C48       C         0.582795  0.089085  0.993447  
         C49       C         0.917205  0.410915  0.037876  
         N50       N         0.542439  0.032408  0.910611  
         N51       N         0.957561  0.467592  0.120712  
         N52       N         0.529124  0.053595  0.063272  
         N53       N         0.970876  0.446405  0.968052  
         H54       H         0.59105   0.046731  0.766953  
         H55       H         0.90895   0.453269  0.264371  
         H56       H         0.551814  0.109163  0.216798  
         H57       H         0.948186  0.390837  0.814527  
         C58       C         0.865231  0.36251   0.865159  
         H59       H         0.874498  0.371627  0.747772  
         C60       C         0.8829    0.379776  0.041217  
         C61       C         0.869341  0.366433  0.212963  
         H62       H         0.88142   0.378235  0.333307  
         H63       H         0.828851  0.326709  0.326024  
         C64       C         0.838118  0.335825  0.208651  
         C65       C         0.820449  0.31856   0.032579  
         C66       C         0.834005  0.331902  0.860833  
         H67       H         0.821929  0.320101  0.740503  
         C68       C         0.781172  0.277722  0.03635   
         C69       C         0.767674  0.26914   0.190914  
         H70       H         0.779691  0.276181  0.32844   
         C71       C         0.763503  0.260456  0.860296  
         H72       H         0.77277   0.269572  0.742909  
         C73       C         0.732277  0.229848  0.85597   
         H74       H         0.720201  0.218046  0.73564   
         C75       C         0.71872   0.216505  0.027712  
         C76       C         0.73639   0.233771  0.203784  
         H77       H         0.727123  0.224655  0.321162  
         H78       H         0.67054   0.175181  0.713304  
         C79       C         0.661274  0.166063  0.830685  
         C80       C         0.678942  0.18333   0.006753  
         C81       C         0.665385  0.169989  0.178499  
         H82       H         0.677462  0.181789  0.298839  
         H83       H         0.624893  0.130264  0.291556  
         C84       C         0.634161  0.13938   0.174183  
         C85       C         0.616491  0.122114  0.998111  
         C86       C         0.630048  0.135456  0.826364  
         H87       H         0.617971  0.123656  0.706035  
         C88       C         0.423984  0.945726  0.189538  
         C89       C         0.076016  0.554274  0.841785  
         C90       C         0.446457  0.912358  0.94272   
         C91       C         0.053543  0.587641  0.088605  
         C92       C         0.417096  0.911583  0.060247  
         C93       C         0.082905  0.588417  0.971075  
         N94       N         0.457602  0.967603  0.151915  
         N95       N         0.042398  0.532397  0.879408  
         N96       N         0.471491  0.946981  0.999374  
         N97       N         0.028509  0.553019  0.031949  
         H98       H         0.408101  0.953015  0.28872   
         H99       H         0.091899  0.546985  0.742603  
         H100      H         0.449028  0.892247  0.839217  
         H101      H         0.050973  0.607753  0.192104  
         C102      C         0.111346  0.663889  0.025771  
         H103      H         0.085849  0.673263  0.055697  
         C104      C         0.117135  0.619817  0.971786  
         C105      C         0.154442  0.606105  0.928017  
         H106      H         0.158399  0.575979  0.891119  
         H107      H         0.211454  0.62709   0.908328  
         C108      C         0.185958  0.63646   0.93825   
         C109      C         0.180168  0.680535  0.992239  
         C110      C         0.142862  0.694249  0.035999  
         H111      H         0.138905  0.72437   0.072902  
         C112      C         0.222463  0.717952  0.010311  
         C113      C         0.254553  0.705524  0.955681  
         H114      H         0.263728  0.674114  0.929644  
         C115      C         0.216675  0.762023  0.064297  
         H116      H         0.191178  0.771396  0.094223  
         C117      C         0.248191  0.792383  0.074525  
         H118      H         0.244234  0.822504  0.111428  
         C119      C         0.285496  0.778669  0.030763  
         C120      C         0.291287  0.734595  0.976775  
         H121      H         0.316783  0.725223  0.946854  
         H122      H         0.288768  0.87155   0.11267   
         C123      C         0.314265  0.862177  0.082754  
         C124      C         0.320055  0.818105  0.02876   
         C125      C         0.357361  0.80439   0.984991  
         H126      H         0.361318  0.774267  0.948093  
         H127      H         0.414373  0.825377  0.965301  
         C128      C         0.388877  0.834748  0.995223  
         C129      C         0.383087  0.878822  0.049212  
         C130      C         0.34578   0.892536  0.092979  
         H131      H         0.341824  0.922658  0.129875  
         C132      C         0.924391  0.554343  0.663865  
         C133      C         0.575609  0.945657  0.367458  
         C134      C         0.945935  0.588623  0.416856  
         C135      C         0.554065  0.911377  0.614467  
         C136      C         0.917205  0.589085  0.537876  
         C137      C         0.582795  0.910915  0.493447  
         N138      N         0.957561  0.532408  0.620712  
         N139      N         0.542439  0.967592  0.410611  
         N140      N         0.970876  0.553595  0.468052  
         N141      N         0.529124  0.946405  0.563272  
         H142      H         0.90895   0.546731  0.76437   
         H143      H         0.59105   0.953269  0.266953  
         H144      H         0.948186  0.609163  0.314526  
         H145      H         0.551814  0.890837  0.716796  
         C146      C         0.634769  0.86251   0.666164  
         H147      H         0.625502  0.871627  0.783552  
         C148      C         0.6171    0.879776  0.490106  
         C149      C         0.630659  0.866433  0.31836   
         H150      H         0.61858   0.878235  0.198016  
         H151      H         0.671149  0.826709  0.205299  
         C152      C         0.661882  0.835825  0.322672  
         C153      C         0.679551  0.81856   0.498744  
         C154      C         0.665995  0.831902  0.67049   
         H155      H         0.678071  0.820101  0.79082   
         C156      C         0.718828  0.777722  0.494974  
         C157      C         0.732326  0.76914   0.34041   
         H158      H         0.720309  0.776181  0.202883  
         C159      C         0.736497  0.760456  0.671027  
         H160      H         0.72723   0.769572  0.788414  
         C161      C         0.767723  0.729848  0.675353  
         H162      H         0.779799  0.718046  0.795683  
         C163      C         0.78128   0.716505  0.503611  
         C164      C         0.76361   0.733771  0.327539  
         H165      H         0.772877  0.724655  0.210161  
         H166      H         0.82946   0.675181  0.81802   
         C167      C         0.838726  0.666063  0.700638  
         C168      C         0.821058  0.68333   0.52457   
         C169      C         0.834615  0.669989  0.352824  
         H170      H         0.822538  0.681789  0.232484  
         H171      H         0.875107  0.630264  0.239767  
         C172      C         0.865839  0.63938   0.35714   
         C173      C         0.883509  0.622114  0.533212  
         C174      C         0.869952  0.635456  0.70496   
         H175      H         0.882029  0.623656  0.825288  
         Fe176     Fe        1.0       0.490532  0.75      
         Fe177     Fe        1.0       0.509468  0.25      
         N178      N         0.957602  0.467603  0.120592  
         N179      N         0.957602  0.532397  0.620592  
         N180      N         0.042398  0.467603  0.379408  
         N181      N         0.042398  0.532397  0.879408  
         N182      N         0.971491  0.446981  0.968051  
         N183      N         0.971491  0.553019  0.468051  
         N184      N         0.028509  0.446981  0.531949  
         N185      N         0.028509  0.553019  0.031949  
         Fe186     Fe        0.5       0.990532  0.781323  
         Fe187     Fe        0.5       0.009468  0.281323  
         N188      N         0.457602  0.967603  0.151915  
         N189      N         0.457602  0.032397  0.651915  
         N190      N         0.542398  0.967603  0.410731  
         N191      N         0.542398  0.032397  0.910731  
         N192      N         0.471491  0.946981  0.999374  
         N193      N         0.471491  0.053019  0.499374  
         N194      N         0.528509  0.946981  0.563272  
         N195      N         0.528509  0.053019  0.063272 