
##########################################################################
#               Crystallographic Information Format file 
#               Produced by PyCifRW module
# 
#  This is a CIF file.  CIF has been adopted by the International
#  Union of Crystallography as the standard for data archiving and 
#  transmission.
#
#  For information on this file format, follow the CIF links at
#  http://www.iucr.org
##########################################################################

data_ZEOPP

_cell_length_a                          12.5911800161
_cell_length_b                          11.1885501776
_cell_length_c                          6.9533
_cell_angle_alpha                       90
_cell_angle_beta                        97.343
_cell_angle_gamma                       90
_symmetry_space_group_name_H-M          P1
_symmetry_Int_Tables_number             1
_symmetry_cell_setting                  Monoclinic
loop_
  _symmetry_equiv_pos_as_xyz
         '+x,+y,+z' 
loop_
  _atom_site_label
  _atom_site_type_symbol
  _atom_site_fract_x
  _atom_site_fract_y
  _atom_site_fract_z
         C0        C         0.38693   0.212368  0.456027  
         C1        C         0.293101  0.247001  0.516826  
         C2        C         0.288972  0.169796  0.669271  
         C3        C         0.205402  0.157628  0.802201  
         C4        C         0.217594  0.335117  0.443961  
         C5        C         0.133272  0.476153  0.283893  
         C6        C         0.229849  0.420703  0.304738  
         C7        C         0.317245  0.45451   0.203521  
         O8        O         0.309006  0.51193   0.052579  
         C9        C         0.966726  0.470169  0.411196  
         C10       C         0.905872  0.413169  0.544692  
         C11       C         0.800382  0.447176  0.565604  
         C12       C         0.750848  0.54035   0.453028  
         C13       C         0.807311  0.599087  0.31977   
         C14       C         0.912825  0.564763  0.299309  
         C15       C         0.402705  0.002014  0.831413  
         H16       H         0.424405  0.244241  0.334766  
         H17       H         0.174701  0.245097  0.838411  
         H18       H         0.237277  0.11552   0.939364  
         H19       H         0.109894  0.549667  0.18666   
         H20       H         0.397658  0.428578  0.269812  
         H21       H         0.940725  0.340466  0.634978  
         H22       H         0.757308  0.401145  0.66904   
         H23       H         0.669518  0.566746  0.468843  
         H24       H         0.769515  0.671264  0.232052  
         H25       H         0.952267  0.613497  0.19388   
         H26       H         0.336555  0.938036  0.823738  
         H27       H         0.41915   0.041196  0.976352  
         H28       H         0.474554  0.957837  0.792594  
         Cl29      Cl        0.097016  0.068352  0.694297  
         C30       C         0.686467  0.112913  0.899216  
         C31       C         0.737602  0.204626  0.001044  
         C32       C         0.668705  0.224856  0.135596  
         C33       C         0.675432  0.315446  0.294324  
         C34       C         0.833326  0.26617   0.976309  
         C35       C         0.978708  0.326086  0.880644  
         C36       C         0.907353  0.234912  0.854066  
         C37       C         0.917959  0.134392  0.730743  
         O38       O         0.972548  0.13224   0.597283  
         C39       C         0.010483  0.504774  0.064459  
         C40       C         0.972871  0.58166   0.204977  
         C41       C         0.026934  0.68684   0.271079  
         C42       C         0.121647  0.719892  0.198913  
         C43       C         0.1618    0.647318  0.060593  
         C44       C         0.107448  0.54218   0.994856  
         C45       C         0.493099  0.13963   0.216546  
         H46       H         0.70753   0.067068  0.773055  
         H47       H         0.758052  0.326802  0.362177  
         H48       H         0.628829  0.288673  0.409439  
         H49       H         0.049885  0.335385  0.809811  
         H50       H         0.875252  0.052692  0.762161  
         H51       H         0.899819  0.559919  0.265056  
         H52       H         0.995208  0.742465  0.378073  
         H53       H         0.163488  0.800946  0.249612  
         H54       H         0.235043  0.672311  0.003979  
         H55       H         0.142417  0.489856  0.887806  
         H56       H         0.453225  0.22653   0.21681   
         H57       H         0.520657  0.109763  0.364369  
         H58       H         0.438455  0.073513  0.142024  
         Cl59      Cl        0.625343  0.455851  0.203657  
         C60       C         0.384683  0.791493  0.950422  
         C61       C         0.286072  0.765079  0.999287  
         C62       C         0.283144  0.84022   0.15473   
         C63       C         0.196949  0.8569    0.281109  
         C64       C         0.207669  0.68194   0.919197  
         C65       C         0.118668  0.548946  0.747453  
         C66       C         0.207574  0.617579  0.749157  
         C67       C         0.27529   0.617594  0.598835  
         O68       O         0.280608  0.536875  0.481721  
         C69       C         0.975674  0.514452  0.933523  
         C70       C         0.929303  0.546562  0.103157  
         C71       C         0.834605  0.494007  0.150998  
         C72       C         0.781828  0.406407  0.030329  
         C73       C         0.824258  0.371788  0.862055  
         C74       C         0.91902   0.424591  0.814766  
         C75       C         0.405915  0.99247   0.339423  
         H76       H         0.426088  0.752867  0.838966  
         H77       H         0.117709  0.85285   0.196206  
         H78       H         0.202665  0.943965  0.352999  
         H79       H         0.089807  0.484854  0.63654   
         H80       H         0.324208  0.697653  0.586542  
         H81       H         0.967278  0.6139    0.201232  
         H82       H         0.802414  0.521336  0.281587  
         H83       H         0.708807  0.365731  0.066877  
         H84       H         0.7839    0.304014  0.767944  
         H85       H         0.947866  0.394066  0.682898  
         H86       H         0.399872  0.953149  0.481723  
         H87       H         0.353989  0.070791  0.313764  
         H88       H         0.489059  0.017235  0.328787  
         Cl89      Cl        0.205374  0.745423  0.464669  
         C90       C         0.813533  0.612913  0.675848  
         C91       C         0.762398  0.704626  0.57402   
         C92       C         0.831295  0.724856  0.439468  
         C93       C         0.824568  0.815446  0.28074   
         C94       C         0.666674  0.76617   0.598755  
         C95       C         0.521292  0.826086  0.694421  
         C96       C         0.592647  0.734912  0.720998  
         C97       C         0.582041  0.634392  0.844321  
         O98       O         0.527452  0.63224   0.977781  
         C99       C         0.489517  0.004774  0.510605  
         C100      C         0.527129  0.08166   0.370087  
         C101      C         0.473066  0.18684   0.303985  
         C102      C         0.378353  0.219892  0.376151  
         C103      C         0.3382    0.147318  0.514472  
         C104      C         0.392552  0.04218   0.580209  
         C105      C         0.006901  0.63963   0.358518  
         H106      H         0.79247   0.567068  0.802009  
         H107      H         0.741948  0.826802  0.212888  
         H108      H         0.871171  0.788673  0.165625  
         H109      H         0.450115  0.835385  0.765253  
         H110      H         0.624748  0.552692  0.812903  
         H111      H         0.600181  0.059919  0.310008  
         H112      H         0.504792  0.242465  0.196991  
         H113      H         0.336512  0.300946  0.325452  
         H114      H         0.264957  0.172311  0.571085  
         H115      H         0.357583  0.989856  0.687258  
         H116      H         0.046775  0.72653   0.358255  
         H117      H         0.979343  0.609763  0.210695  
         H118      H         0.061545  0.573513  0.43304   
         Cl119     Cl        0.874657  0.955851  0.371407  
         Fe120     Fe        1.0       0.474711  0.75      
         Fe121     Fe        1.0       0.525289  0.25      
         N122      N         0.886762  0.413473  0.120592  
         N123      N         0.886762  0.586527  0.620592  
         N124      N         0.113238  0.413473  0.379408  
         N125      N         0.113238  0.586527  0.879408  
         N126      N         0.923856  0.358393  0.968051  
         N127      N         0.923856  0.641607  0.468051  
         N128      N         0.076144  0.358393  0.531949  
         N129      N         0.076144  0.641607  0.031949  
         Fe130     Fe        0.5       0.974711  0.825064  
         Fe131     Fe        0.5       0.025289  0.325064  
         N132      N         0.386762  0.913473  0.195656  
         N133      N         0.386762  0.086527  0.695656  
         N134      N         0.613238  0.913473  0.454472  
         N135      N         0.613238  0.086527  0.954472  
         N136      N         0.423856  0.858393  0.043115  
         N137      N         0.423856  0.141607  0.543115  
         N138      N         0.576144  0.858393  0.607013  
         N139      N         0.576144  0.141607  0.107013 