
##########################################################################
#               Crystallographic Information Format file 
#               Produced by PyCifRW module
# 
#  This is a CIF file.  CIF has been adopted by the International
#  Union of Crystallography as the standard for data archiving and 
#  transmission.
#
#  For information on this file format, follow the CIF links at
#  http://www.iucr.org
##########################################################################

data_ZEOPP

_cell_length_a                          13.7484042385
_cell_length_b                          12.2168621596
_cell_length_c                          6.9533
_cell_angle_alpha                       90
_cell_angle_beta                        97.343
_cell_angle_gamma                       90
_symmetry_space_group_name_H-M          P1
_symmetry_Int_Tables_number             1
_symmetry_cell_setting                  Monoclinic
loop_
  _symmetry_equiv_pos_as_xyz
         '+x,+y,+z' 
loop_
  _atom_site_label
  _atom_site_type_symbol
  _atom_site_fract_x
  _atom_site_fract_y
  _atom_site_fract_z
         C0        C         0.292979  0.215226  0.492417  
         C1        C         0.370494  0.206314  0.389764  
         C2        C         0.314942  0.132589  0.621863  
         H3        H         0.386592  0.255161  0.268122  
         H4        H         0.273899  0.106745  0.736697  
         C5        C         0.237173  0.412283  0.189063  
         O6        O         0.186783  0.501913  0.089892  
         C7        C         0.183424  0.373594  0.349032  
         C8        C         0.135352  0.293253  0.582616  
         C9        C         0.210859  0.289135  0.473594  
         H10       H         0.123709  0.241267  0.703558  
         H11       H         0.24226   0.346342  0.084118  
         H12       H         0.310806  0.439985  0.247521  
         H13       H         0.224321  0.524477  0.986987  
         C14       C         0.706867  0.215182  0.983434  
         C15       C         0.627155  0.204477  0.079506  
         C16       C         0.68714   0.134587  0.849075  
         H17       H         0.608793  0.251338  0.20171   
         H18       H         0.730437  0.110665  0.736563  
         C19       C         0.757453  0.407461  0.29878   
         O20       O         0.806281  0.495588  0.40542   
         C21       C         0.814326  0.371443  0.141667  
         C22       C         0.866824  0.294947  0.908897  
         C23       C         0.789015  0.288938  0.011682  
         H24       H         0.8807    0.244928  0.786914  
         H25       H         0.750381  0.339868  0.399516  
         H26       H         0.684615  0.435924  0.236737  
         H27       H         0.766719  0.516428  0.50616   
         C28       C         0.292979  0.784774  0.992466  
         C29       C         0.370499  0.79369   0.889825  
         C30       C         0.314938  0.867407  0.121922  
         H31       H         0.386601  0.744847  0.768182  
         H32       H         0.27389   0.893247  0.236751  
         C33       C         0.237184  0.587726  0.689086  
         O34       O         0.186796  0.498099  0.5899    
         C35       C         0.183428  0.62641   0.849051  
         C36       C         0.135347  0.706744  0.082634  
         C37       C         0.210859  0.710866  0.973623  
         H38       H         0.1237    0.758725  0.203578  
         H39       H         0.310815  0.560023  0.747552  
         H40       H         0.242275  0.653671  0.58415   
         H41       H         0.224339  0.475539  0.487     
         C42       C         0.793133  0.715182  0.49724   
         C43       C         0.872845  0.704477  0.401168  
         C44       C         0.81286   0.634587  0.631599  
         H45       H         0.891207  0.751338  0.278964  
         H46       H         0.769563  0.610665  0.744111  
         C47       C         0.742547  0.907461  0.181893  
         O48       O         0.693719  0.995588  0.075254  
         C49       C         0.685674  0.871443  0.339007  
         C50       C         0.633176  0.794947  0.571777  
         C51       C         0.710985  0.788938  0.468992  
         H52       H         0.6193    0.744928  0.69376   
         H53       H         0.749619  0.839868  0.081158  
         H54       H         0.815385  0.935924  0.243937  
         H55       H         0.733281  0.016428  0.974514  
         Fe56      Fe        0.0       0.47684   0.75      
         Fe57      Fe        1.0       0.52316   0.25      
         N58       N         0.896293  0.420757  0.120592  
         N59       N         0.896293  0.579243  0.620592  
         N60       N         0.103707  0.420757  0.379408  
         N61       N         0.103707  0.579243  0.879408  
         N62       N         0.930265  0.370312  0.968051  
         N63       N         0.930265  0.629688  0.468051  
         N64       N         0.069735  0.370312  0.531949  
         N65       N         0.069735  0.629688  0.031949  
         Fe66      Fe        0.5       0.97684   0.730674  
         Fe67      Fe        0.5       0.02316   0.230674  
         N68       N         0.396293  0.920757  0.101266  
         N69       N         0.396293  0.079243  0.601266  
         N70       N         0.603707  0.920757  0.360082  
         N71       N         0.603707  0.079243  0.860082  
         N72       N         0.430265  0.870312  0.948725  
         N73       N         0.430265  0.129688  0.448725  
         N74       N         0.569735  0.870312  0.512623  
         N75       N         0.569735  0.129688  0.012623 