
##########################################################################
#               Crystallographic Information Format file 
#               Produced by PyCifRW module
# 
#  This is a CIF file.  CIF has been adopted by the International
#  Union of Crystallography as the standard for data archiving and 
#  transmission.
#
#  For information on this file format, follow the CIF links at
#  http://www.iucr.org
##########################################################################

data_ZEOPP

_cell_length_a                          20.1530013287
_cell_length_b                          17.9080011807
_cell_length_c                          6.9533
_cell_angle_alpha                       90
_cell_angle_beta                        97.343
_cell_angle_gamma                       90
_symmetry_space_group_name_H-M          P1
_symmetry_Int_Tables_number             1
_symmetry_cell_setting                  Monoclinic
loop_
  _symmetry_equiv_pos_as_xyz
         '+x,+y,+z' 
loop_
  _atom_site_label
  _atom_site_type_symbol
  _atom_site_fract_x
  _atom_site_fract_y
  _atom_site_fract_z
         C0        C         0.08995   0.354496  0.590581  
         C1        C         0.410049  0.145504  0.409327  
         C2        C         0.127448  0.410179  0.343762  
         C3        C         0.372552  0.08982   0.656148  
         C4        C         0.139315  0.353664  0.474275  
         C5        C         0.360685  0.146336  0.525634  
         C6        C         0.196764  0.299859  0.487603  
         C7        C         0.303236  0.200141  0.512305  
         C8        C         0.241098  0.176441  0.555104  
         C9        C         0.258902  0.323559  0.444804  
         C10       C         0.187862  0.2263    0.542753  
         C11       C         0.312138  0.2737    0.457156  
         H12       H         0.085797  0.321104  0.694531  
         H13       H         0.414202  0.178896  0.305377  
         H14       H         0.154087  0.422511  0.245029  
         H15       H         0.345913  0.077489  0.75488   
         H16       H         0.235014  0.126166  0.592797  
         H17       H         0.264986  0.373833  0.407111  
         H18       H         0.145394  0.210102  0.572003  
         H19       H         0.354606  0.289898  0.427905  
         C20       C         0.627449  0.089821  0.843775  
         C21       C         0.872551  0.410179  0.156225  
         C22       C         0.589949  0.145503  0.090592  
         C23       C         0.910052  0.354497  0.909408  
         C24       C         0.639315  0.146336  0.974294  
         C25       C         0.860685  0.353664  0.025706  
         C26       C         0.696764  0.200141  0.987636  
         C27       C         0.803236  0.299859  0.012364  
         C28       C         0.77492   0.273339  0.832547  
         C29       C         0.72508   0.226661  0.167453  
         C30       C         0.721684  0.22348   0.820183  
         C31       C         0.778316  0.27652   0.179817  
         H32       H         0.654089  0.077488  0.745047  
         H33       H         0.845911  0.422512  0.254953  
         H34       H         0.585795  0.178896  0.194542  
         H35       H         0.914205  0.321104  0.805458  
         H36       H         0.791952  0.28929   0.7181    
         H37       H         0.708048  0.21071   0.2819    
         H38       H         0.702331  0.205355  0.697286  
         H39       H         0.797669  0.294645  0.302714  
         C40       C         0.127449  0.589821  0.843775  
         C41       C         0.372551  0.910179  0.156225  
         C42       C         0.089949  0.645503  0.090592  
         C43       C         0.410052  0.854497  0.909408  
         C44       C         0.139315  0.646336  0.974294  
         C45       C         0.360685  0.853664  0.025706  
         C46       C         0.196764  0.700141  0.987636  
         C47       C         0.303236  0.799859  0.012364  
         C48       C         0.27492   0.773339  0.832547  
         C49       C         0.22508   0.726661  0.167453  
         C50       C         0.221684  0.72348   0.820183  
         C51       C         0.278316  0.77652   0.179817  
         H52       H         0.154089  0.577488  0.745047  
         H53       H         0.345911  0.922512  0.254953  
         H54       H         0.085795  0.678896  0.194542  
         H55       H         0.414205  0.821104  0.805458  
         H56       H         0.291952  0.78929   0.7181    
         H57       H         0.208048  0.71071   0.2819    
         H58       H         0.202331  0.705355  0.697286  
         H59       H         0.297669  0.794645  0.302714  
         C60       C         0.872551  0.589821  0.656225  
         C61       C         0.627449  0.910179  0.343775  
         C62       C         0.910051  0.645503  0.409408  
         C63       C         0.589948  0.854497  0.590592  
         C64       C         0.860685  0.646336  0.525706  
         C65       C         0.639315  0.853664  0.474294  
         C66       C         0.803236  0.700141  0.512364  
         C67       C         0.696764  0.799859  0.487636  
         C68       C         0.72508   0.773339  0.667453  
         C69       C         0.77492   0.726661  0.332547  
         C70       C         0.778316  0.72348   0.679817  
         C71       C         0.721684  0.77652   0.320183  
         H72       H         0.845911  0.577488  0.754953  
         H73       H         0.654089  0.922512  0.245047  
         H74       H         0.914205  0.678896  0.305458  
         H75       H         0.585795  0.821104  0.694542  
         H76       H         0.708048  0.78929   0.7819    
         H77       H         0.791952  0.71071   0.2181    
         H78       H         0.797669  0.705355  0.802714  
         H79       H         0.702331  0.794645  0.197286  
         Fe80      Fe        1.0       0.4842    0.75      
         Fe81      Fe        1.0       0.5158    0.25      
         N82       N         0.929251  0.44594   0.120592  
         N83       N         0.929251  0.55406   0.620592  
         N84       N         0.070749  0.44594   0.379408  
         N85       N         0.070749  0.55406   0.879408  
         N86       N         0.952427  0.411527  0.968051  
         N87       N         0.952427  0.588473  0.468051  
         N88       N         0.047573  0.411527  0.531949  
         N89       N         0.047573  0.588473  0.031949  
         Fe90      Fe        0.5       0.9842    0.75      
         Fe91      Fe        0.5       0.0158    0.25      
         N92       N         0.429251  0.94594   0.120592  
         N93       N         0.429251  0.05406   0.620592  
         N94       N         0.570749  0.94594   0.379408  
         N95       N         0.570749  0.05406   0.879408  
         N96       N         0.452427  0.911527  0.968051  
         N97       N         0.452427  0.088473  0.468051  
         N98       N         0.547573  0.911527  0.531949  
         N99       N         0.547573  0.088473  0.031949 