
##########################################################################
#               Crystallographic Information Format file 
#               Produced by PyCifRW module
# 
#  This is a CIF file.  CIF has been adopted by the International
#  Union of Crystallography as the standard for data archiving and 
#  transmission.
#
#  For information on this file format, follow the CIF links at
#  http://www.iucr.org
##########################################################################

data_ZEOPP

_cell_length_a                          17.9446545868
_cell_length_b                          15.9456594225
_cell_length_c                          6.9533
_cell_angle_alpha                       90
_cell_angle_beta                        97.343
_cell_angle_gamma                       90
_symmetry_space_group_name_H-M          P1
_symmetry_Int_Tables_number             1
_symmetry_cell_setting                  Monoclinic
loop_
  _symmetry_equiv_pos_as_xyz
         '+x,+y,+z' 
loop_
  _atom_site_label
  _atom_site_type_symbol
  _atom_site_fract_x
  _atom_site_fract_y
  _atom_site_fract_z
         C0        C         0.355949442077      0.100790613769      0.653517399621     
         C1        C         0.144050560469      0.399209072689      0.346650832176     
         C2        C         0.398583539101      0.162845778894      0.406821568091     
         C3        C         0.101415347557      0.337153897464      0.593346634561     
         C4        C         0.342607386205      0.163682686213      0.521488195265     
         C5        C         0.157392611249      0.336317627329      0.478680023273     
         C6        C         0.222427531408      0.276526560002      0.494968365979     
         H7        H         0.325716448365      0.0870130555414     0.75161811116      
         H8        H         0.174283549089      0.412987258         0.248550107377     
         H9        H         0.403360644468      0.200026828225      0.302344485343     
         H10       H         0.0966393580782     0.299972858233      0.697823746454     
         C11       C         0.277572471138      0.223473126456      0.505199865819     
         C12       C         0.856289061019      0.398751267803      0.154661464058     
         C13       C         0.643711127436      0.101248804668      0.845507330008     
         C14       C         0.898940299952      0.3367128811        0.907968656142     
         C15       C         0.60105934365       0.163286460952      0.0922018350848    
         C16       C         0.843169830427      0.335589349433      0.0232564181611    
         C17       C         0.656829981117      0.164410578096      0.976911238108     
         C18       C         0.721463202259      0.224723300986      0.992032238031     
         H19       H         0.826128162413      0.412419173869      0.252990957423     
         H20       H         0.673871649131      0.0875807536599     0.747176698846     
         H21       H         0.903802647635      0.299437162265      0.803720028413     
         H22       H         0.596197540821      0.200562910206      0.196448765653     
         C23       C         0.778536986196      0.275276771485      0.0081365560346    
         C24       C         0.356296835399      0.898759059823      0.154567690333     
         C25       C         0.14370335309       0.60124101268       0.845601103636     
         C26       C         0.398930478986      0.836704482488      0.907870487907     
         C27       C         0.10106916478       0.663294859712      0.0923000037492    
         C28       C         0.343169109454      0.83558915122       0.0231864798154    
         C29       C         0.156830702056      0.664410776277      0.97698117655      
         C30       C         0.221463355888      0.724723301958      0.992053328385     
         H31       H         0.326143272229      0.912433652137      0.252908547999     
         H32       H         0.173856539281      0.58756627536       0.747259108367     
         H33       H         0.403785713254      0.799422154564      0.803629615969     
         H34       H         0.0962144752361     0.700577917939      0.196539178        
         C35       C         0.278536832602      0.775276770545 
          0.00811546558397    
         C36       C         0.855941732442      0.600798346204      0.653611188059     
         C37       C         0.644058270105      0.899201340255      0.346557043843     
         C38       C         0.898593424727      0.662837320775      0.406919751019     
         C39       C         0.601405461908      0.837162355602      0.593248451236     
         C40       C         0.842608211868      0.663682391652      0.5215581574       
         C41       C         0.657391785586      0.83631792189       0.478610061033     
         C42       C         0.722427198083      0.776526726353      0.494947234791     
         H43       H         0.825701418097      0.587027460599      0.75170053866      
         H44       H         0.674298579356      0.912972852942      0.248467679773     
         H45       H         0.903377658071      0.700011747616      0.302434915789     
         H46       H         0.596622344476      0.799987938842      0.697733316113     
         C47       C         0.777572804464      0.723472960106      0.505220997111     
         Fe48      Fe        3.97591616125e-19   0.48225558489       0.750154234808     
         Fe49      Fe        1.0       0.51774441511       0.250154234808      
         N50       N         0.920544327555      0.439287146781      0.120746234808     
         N51       N         0.920544327555      0.560712853219      0.620746234808     
         N52       N         0.0794556724455     0.439287146781      0.379562234808     
         N53       N         0.0794556724455     0.560712853219      0.879562234808     
         N54       N         0.946572464554      0.400639136832      0.968205234808     
         N55       N         0.946572464554      0.599360863168      0.468205234808     
         N56       N         0.0534275354457     0.400639136832      0.532103234808     
         N57       N         0.0534275354457     0.599360863168      0.0321032348079    
         Fe58      Fe        0.5       0.98225558489       0.75001399036       
         Fe59      Fe        0.5       0.0177444151103     0.25001399036       
         N60       N         0.420544327555      0.939287146781      0.12060599036      
         N61       N         0.420544327555      0.0607128532192     0.62060599036      
         N62       N         0.579455672445      0.939287146781      0.37942199036      
         N63       N         0.579455672445      0.0607128532192     0.87942199036      
         N64       N         0.446572464554      0.900639136832      0.96806499036      
         N65       N         0.446572464554      0.0993608631679     0.46806499036      
         N66       N         0.553427535446      0.900639136832      0.53196299036      
         N67       N         0.553427535446      0.0993608631679 
          0.0319629903595 