
##########################################################################
#               Crystallographic Information Format file 
#               Produced by PyCifRW module
# 
#  This is a CIF file.  CIF has been adopted by the International
#  Union of Crystallography as the standard for data archiving and 
#  transmission.
#
#  For information on this file format, follow the CIF links at
#  http://www.iucr.org
##########################################################################

data_ZEOPP

_cell_length_a                          26.372691541
_cell_length_b                          23.4348315445
_cell_length_c                          6.9533
_cell_angle_alpha                       90
_cell_angle_beta                        97.343
_cell_angle_gamma                       90
_symmetry_space_group_name_H-M          P1
_symmetry_Int_Tables_number             1
_symmetry_cell_setting                  Monoclinic
loop_
  _symmetry_equiv_pos_as_xyz
         '+x,+y,+z' 
loop_
  _atom_site_label
  _atom_site_type_symbol
  _atom_site_fract_x
  _atom_site_fract_y
  _atom_site_fract_z
         N0        N         0.214609  0.247337  0.961912  
         C1        C         0.218825  0.2026    0.033662  
         C2        C         0.223943  0.147855  0.123026  
         C3        C         0.222586  0.097051  0.994538  
         O4        O         0.228084  0.048047  0.05434   
         C5        C         0.276692  0.188716  0.617391  
         C6        C         0.23431   0.185849  0.467509  
         C7        C         0.194019  0.226023  0.46466   
         C8        C         0.19501   0.269972  0.604757  
         C9        C         0.237613  0.272824  0.750317  
         C10       C         0.277493  0.232875  0.756776  
         C11       C         0.231316  0.140377  0.319622  
         H12       H         0.161241  0.222766  0.353428  
         H13       H         0.240036  0.306091  0.85981   
         H14       H         0.309349  0.23654   0.871605  
         C15       C         0.319188  0.148324  0.628787  
         C16       C         0.358679  0.157452  0.510241  
         C17       C         0.397581  0.117172  0.528407  
         C18       C         0.401057  0.070878  0.647286  
         C19       C         0.440238  0.112265  0.440416  
         C20       C         0.363412  0.060219  0.765965  
         C21       C         0.322275  0.099603  0.75519   
         Cl22      Cl        0.274913  0.086299  0.900674  
         H23       H         0.358394  0.193504  0.411863  
         H24       H         0.453244  0.140163  0.332824  
         H25       H         0.365363  0.023467  0.861743  
         C26       C         0.15344   0.311451  0.597233  
         C27       C         0.146339  0.350684  0.439358  
         C28       C         0.106355  0.389076  0.441469  
         C29       C         0.073972  0.392268  0.578299  
         C30       C         0.089017  0.431414  0.318084  
         C31       C         0.079147  0.354775  0.734839  
         C32       C         0.119277  0.314144  0.742711  
         Cl33      Cl        0.124838  0.266565  0.935165  
         H34       H         0.170792  0.350802  0.324866  
         H35       H         0.10358   0.444483  0.186341  
         H36       H         0.05355   0.356381  0.845276  
         H37       H         0.23676   0.097535  0.377945  
         H38       H         0.216273  0.106321  0.837801  
         N39       N         0.787498  0.249371  0.557341  
         C40       C         0.783012  0.204371  0.487657  
         C41       C         0.777559  0.149298  0.400818  
         C42       C         0.779432  0.098987  0.531665  
         O43       O         0.773716  0.049769  0.47421   
         C44       C         0.722946  0.18836   0.906829  
         C45       C         0.765838  0.185988  0.054674  
         C46       C         0.806051  0.226095  0.053475  
         C47       C         0.804499  0.269505  0.911276  
         C48       C         0.761404  0.271878  0.767774  
         C49       C         0.721586  0.231982  0.765323  
         C50       C         0.769421  0.141081  0.204629  
         H51       H         0.839205  0.223203  0.16317   
         H52       H         0.758545  0.304728  0.656779  
         H53       H         0.689338  0.235267  0.651955  
         C54       C         0.680498  0.148007  0.899601  
         C55       C         0.641557  0.157662  0.02021   
         C56       C         0.602669  0.117388  0.005991  
         C57       C         0.598735  0.070649  0.889123  
         C58       C         0.560449  0.112899  0.096785  
         C59       C         0.635834  0.059466  0.768553  
         C60       C         0.676923  0.098811  0.77528   
         Cl61      Cl        0.723613  0.084863  0.627419  
         H62       H         0.642227  0.194088  0.117171  
         H63       H         0.547893  0.14123   0.20409   
         H64       H         0.633513  0.022354  0.674323  
         C65       C         0.846007  0.310932  0.91463   
         C66       C         0.853714  0.350753  0.070663  
         C67       C         0.893602  0.38906   0.064591  
         C68       C         0.925375  0.391667  0.925535  
         C69       C         0.911388  0.431834  0.185353  
         C70       C         0.919594  0.353587  0.770654  
         C71       C         0.879521  0.313004  0.766832  
         Cl72      Cl        0.873215  0.264702  0.576436  
         H73       H         0.829766  0.351356  0.186744  
         H74       H         0.897375  0.445434  0.317586  
         H75       H         0.9447    0.354722  0.658494  
         H76       H         0.763763  0.09803   0.148383  
         H77       H         0.786353  0.108846  0.687909  
         N78       N         0.326599  0.615213  0.945203  
         C79       C         0.343747  0.644079  0.072759  
         C80       C         0.364451  0.679694  0.229382  
         C81       C         0.416088  0.665457  0.32959   
         O82       O         0.438414  0.693806  0.462015  
         C83       C         0.281711  0.805125  0.139048  
         C84       C         0.288752  0.747333  0.202451  
         C85       C         0.246117  0.710036  0.189484  
         C86       C         0.196534  0.728158  0.111335  
         C87       C         0.190325  0.785214  0.046249  
         C88       C         0.232031  0.822922  0.060587  
         C89       C         0.339627  0.726689  0.287035  
         H90       H         0.251412  0.666564  0.242555  
         H91       H         0.152997  0.800736  0.984193  
         H92       H         0.225459  0.866421  0.009582  
         C93       C         0.324077  0.845675  0.149885  
         C94       C         0.356662  0.845024  0.001536  
         C95       C         0.396161  0.88457   0.022281  
         C96       C         0.40605   0.922994  0.168831  
         C97       C         0.43364   0.895833  0.911943  
         C98       C         0.37523   0.925276  0.316966  
         C99       C         0.334003  0.886003  0.305803  
         Cl100     Cl        0.295803  0.888062  0.490821  
         H101      H         0.351054  0.815505  0.880187  
         H102      H         0.440696  0.875238  0.778673  
         H103      H         0.382471  0.955535  0.435573  
         C104      C         0.153291  0.688731  0.096592  
         C105      C         0.152508  0.641744  0.965982  
         C106      C         0.11027   0.606119  0.958363  
         C107      C         0.070461  0.612041  0.063149  
         C108      C         0.097092  0.558675  0.852932  
         C109      C         0.069516  0.657046  0.193275  
         C110      C         0.111516  0.695381  0.209218  
         Cl111     Cl        0.110882  0.750564  0.374938  
         H112      H         0.182897  0.634341  0.877105  
         H113      H         0.117901  0.537941  0.748141  
         H114      H         0.038225  0.662427  0.279143  
         H115      H         0.358434  0.753129  0.403027  
         H116      H         0.433669  0.626861  0.275965  
         N117      N         0.712502  0.749371  0.962868  
         C118      C         0.716988  0.704371  0.032552  
         C119      C         0.722441  0.649298  0.119391  
         C120      C         0.720568  0.598987  0.988544  
         O121      O         0.726284  0.549769  0.045999  
         C122      C         0.777054  0.68836   0.61338   
         C123      C         0.734162  0.685988  0.465535  
         C124      C         0.693949  0.726095  0.466734  
         C125      C         0.695501  0.769505  0.608933  
         C126      C         0.738596  0.771878  0.752435  
         C127      C         0.778414  0.731982  0.754886  
         C128      C         0.730579  0.641081  0.315581  
         H129      H         0.660795  0.723203  0.357039  
         H130      H         0.741455  0.804728  0.86343   
         H131      H         0.810662  0.735267  0.868254  
         C132      C         0.819502  0.648007  0.620608  
         C133      C         0.858443  0.657662  0.499999  
         C134      C         0.897331  0.617388  0.514218  
         C135      C         0.901265  0.570649  0.631086  
         C136      C         0.939551  0.612899  0.423424  
         C137      C         0.864166  0.559466  0.751656  
         C138      C         0.823077  0.598811  0.744929  
         Cl139     Cl        0.776387  0.584863  0.89279   
         H140      H         0.857773  0.694088  0.403038  
         H141      H         0.952107  0.64123   0.316119  
         H142      H         0.866487  0.522354  0.845886  
         C143      C         0.653993  0.810932  0.605579  
         C144      C         0.646286  0.850753  0.449547  
         C145      C         0.606398  0.88906   0.455618  
         C146      C         0.574625  0.891667  0.594674  
         C147      C         0.588612  0.931834  0.334856  
         C148      C         0.580406  0.853587  0.749555  
         C149      C         0.620479  0.813004  0.753377  
         Cl150     Cl        0.626785  0.764702  0.943773  
         H151      H         0.670234  0.851356  0.333465  
         H152      H         0.602625  0.945434  0.202623  
         H153      H         0.5553    0.854722  0.861715  
         H154      H         0.736237  0.59803   0.371826  
         H155      H         0.713647  0.608846  0.8323    
         Fe156     Fe        1.0       0.487926  0.75      
         Fe157     Fe        1.0       0.512074  0.25      
         N158      N         0.945936  0.458689  0.120592  
         N159      N         0.945936  0.541311  0.620592  
         N160      N         0.054064  0.458689  0.379408  
         N161      N         0.054064  0.541311  0.879408  
         N162      N         0.963647  0.432392  0.968051  
         N163      N         0.963647  0.567608  0.468051  
         N164      N         0.036353  0.432392  0.531949  
         N165      N         0.036353  0.567608  0.031949  
         Fe166     Fe        0.5       0.987926  0.770209  
         Fe167     Fe        0.5       0.012074  0.270209  
         N168      N         0.445936  0.958689  0.140801  
         N169      N         0.445936  0.041311  0.640801  
         N170      N         0.554064  0.958689  0.399617  
         N171      N         0.554064  0.041311  0.899617  
         N172      N         0.463647  0.932392  0.98826   
         N173      N         0.463647  0.067608  0.48826   
         N174      N         0.536353  0.932392  0.552158  
         N175      N         0.536353  0.067608  0.052158 