
##########################################################################
#               Crystallographic Information Format file 
#               Produced by PyCifRW module
# 
#  This is a CIF file.  CIF has been adopted by the International
#  Union of Crystallography as the standard for data archiving and 
#  transmission.
#
#  For information on this file format, follow the CIF links at
#  http://www.iucr.org
##########################################################################

data_ZEOPP

_cell_length_a                          17.9269542393
_cell_length_b                          15.9299308549
_cell_length_c                          6.9533
_cell_angle_alpha                       90
_cell_angle_beta                        97.343
_cell_angle_gamma                       90
_symmetry_space_group_name_H-M          P1
_symmetry_Int_Tables_number             1
_symmetry_cell_setting                  Monoclinic
loop_
  _symmetry_equiv_pos_as_xyz
         '+x,+y,+z' 
loop_
  _atom_site_label
  _atom_site_type_symbol
  _atom_site_fract_x
  _atom_site_fract_y
  _atom_site_fract_z
         C0        C         0.101575  0.337016  0.591962  
         C1        C         0.398425  0.162984  0.400784  
         C2        C         0.143733  0.39961   0.345144  
         C3        C         0.356268  0.10039   0.647604  
         C4        C         0.157355  0.336441  0.476509  
         C5        C         0.342646  0.163559  0.516236  
         C6        C         0.277533  0.223366  0.501307  
         H7        H         0.097009  0.299612  0.696224  
         H8        H         0.402991  0.200388  0.296521  
         H9        H         0.173785  0.413605  0.246724  
         H10       H         0.326215  0.086395  0.746022  
         C11       C         0.222467  0.276634  0.491439  
         C12       C         0.898937  0.337454  0.905868  
         C13       C         0.601063  0.162546  0.086877  
         C14       C         0.855867  0.399209  0.152461  
         C15       C         0.644132  0.100791  0.840282  
         C16       C         0.842687  0.336455  0.01986   
         C17       C         0.657312  0.163545  0.972886  
         C18       C         0.722451  0.223358  0.990344  
         H19       H         0.903872  0.300393  0.801203  
         H20       H         0.596128  0.199607  0.191543  
         H21       H         0.825435  0.412858  0.250293  
         H22       H         0.674565  0.087142  0.742452  
         C23       C         0.777549  0.276642  0.002401  
         C24       C         0.398425  0.837016  0.900783  
         C25       C         0.101575  0.662984  0.091962  
         C26       C         0.356267  0.89961   0.147602  
         C27       C         0.143732  0.60039   0.845141  
         C28       C         0.342645  0.836441  0.016237  
         C29       C         0.157354  0.663559  0.976509  
         C30       C         0.222467  0.723366  0.991438  
         H31       H         0.402991  0.799612  0.796521  
         H32       H         0.097009  0.700388  0.196225  
         H33       H         0.326215  0.913605  0.246021  
         H34       H         0.173785  0.586395  0.746724  
         C35       C         0.277533  0.776634  0.001307  
         C36       C         0.899283  0.662999  0.406917  
         C37       C         0.600717  0.837001  0.585828  
         C38       C         0.856212  0.601243  0.65351   
         C39       C         0.643788  0.898758  0.339236  
         C40       C         0.843247  0.664276  0.521558  
         C41       C         0.656753  0.835723  0.471187  
         C42       C         0.721491  0.775386  0.48743   
         H43       H         0.904297  0.700163  0.302493  
         H44       H         0.595702  0.799837  0.690253  
         H45       H         0.825858  0.587696  0.751577  
         H46       H         0.674142  0.912304  0.241168  
         C47       C         0.778509  0.724614  0.505315  
         Fe48      Fe        0.0       0.482238  0.75      
         Fe49      Fe        1.0       0.517762  0.25      
         N50       N         0.920466  0.439227  0.120592  
         N51       N         0.920466  0.560773  0.620592  
         N52       N         0.079534  0.439227  0.379408  
         N53       N         0.079534  0.560773  0.879408  
         N54       N         0.94652   0.400541  0.968051  
         N55       N         0.94652   0.599459  0.468051  
         N56       N         0.05348   0.400541  0.531949  
         N57       N         0.05348   0.599459  0.031949  
         Fe58      Fe        0.5       0.982238  0.742745  
         Fe59      Fe        0.5       0.017762  0.242745  
         N60       N         0.420466  0.939227  0.113337  
         N61       N         0.420466  0.060773  0.613337  
         N62       N         0.579534  0.939227  0.372153  
         N63       N         0.579534  0.060773  0.872153  
         N64       N         0.44652   0.900541  0.960796  
         N65       N         0.44652   0.099459  0.460796  
         N66       N         0.55348   0.900541  0.524694  
         N67       N         0.55348   0.099459  0.024694 