
##########################################################################
#               Crystallographic Information Format file 
#               Produced by PyCifRW module
# 
#  This is a CIF file.  CIF has been adopted by the International
#  Union of Crystallography as the standard for data archiving and 
#  transmission.
#
#  For information on this file format, follow the CIF links at
#  http://www.iucr.org
##########################################################################

data_ZEOPP

_cell_length_a                          27.4027837788
_cell_length_b                          24.3501737662
_cell_length_c                          6.9533
_cell_angle_alpha                       90
_cell_angle_beta                        97.343
_cell_angle_gamma                       90
_symmetry_space_group_name_H-M          P1
_symmetry_Int_Tables_number             1
_symmetry_cell_setting                  Monoclinic
loop_
  _symmetry_equiv_pos_as_xyz
         '+x,+y,+z' 
loop_
  _atom_site_label
  _atom_site_type_symbol
  _atom_site_fract_x
  _atom_site_fract_y
  _atom_site_fract_z
         C0        C         0.406222960559      0.0661990614529     0.658537987083     
         C1        C         0.0931583109974     0.433182210104      0.341876785384     
         C2        C         0.43363129035       0.107314251511      0.411678260981     
         C3        C         0.0657492521659     0.392067027445      0.588736534864     
         C4        C         0.397609733866      0.108084282374      0.529270087345     
         C5        C         0.101771902211      0.391296985484      0.471144673434     
         H6        H         0.386774009695      0.0571492694836     0.7577510147       
         H7        H         0.112607626382      0.442231998374      0.242663746079     
         H8        H         0.436689381468      0.132028675204      0.308177509597     
         H9        H         0.0626922083303     0.367353006404      0.692235812067     
         C10       C         0.165413363452      0.333526647164      0.652827578717     
         H11       H         0.153238563537      0.345174339906      0.768103895599     
         C12       C         0.144416478686      0.353565147018      0.474026997497     
         C13       C         0.162230248948      0.336517699275      0.305369644093     
         H14       H         0.147876763574      0.35021429122       0.183150811624     
         H15       H         0.213208912881      0.287784101887      0.200251288499     
         C16       C         0.201033613562      0.299431825669      0.315513105677     
         C17       C         0.222030997732      0.279393294775      0.494328186601     
         C18       C         0.204220872677      0.296440705522      0.662985423121     
         H19       H         0.21857021344       0.282744181613      0.78518987277      
         C20       C         0.270926611786      0.229830617018      0.49811974572      
         C21       C         0.288505634596      0.218710022954      0.346182718038     
         H22       H         0.274386896674      0.22647976122       0.207243559846     
         C23       C         0.291922978549      0.209791719529      0.676915977861     
         H24       H         0.279748178634      0.221439412271      0.792192294744     
         C25       C         0.330730487774      0.172705777887      0.687073822266     
         H26       H         0.345079828537      0.159009253978      0.809278271914     
         C27       C         0.348541130833      0.155658764775      0.518420934823     
         C28       C         0.327543746662      0.175697295669      0.339605853899     
         H29       H         0.339718527978      0.164049174252      0.224339687644     
         C30       C         0.905903631982      0.432819624774      0.159917685828     
         C31       C         0.592240182689      0.0665616467825     0.840497086639     
         C32       C         0.933314359105      0.391707344914      0.913057389274     
         C33       C         0.564829117157      0.107673448471      0.0873591413699    
         C34       C         0.897476569373      0.39071283105       0.0314651136533    
         C35       C         0.600667414502      0.108668679593      0.968948779726     
         H36       H         0.886521953438      0.441785919486      0.259431938761     
         H37       H         0.611622030437      0.0575955911565     0.740981954619     
         H38       H         0.936440602143      0.366913126144      0.809852557978     
         H39       H         0.561703342344      0.132467962475      0.190559926777     
         C40       C         0.63517941844       0.201540532838      0.0212834664146    
         H41       H         0.603898436919      0.212915611773      0.0517060129681    
         C42       C         0.642461521679      0.147425859539      0.968064462635     
         C43       C         0.688232014366      0.130785715566      0.92356762307      
         H44       H         0.693209605253      0.0937951814334     0.88719440364      
         H45       H         0.757995896266      0.156883553591      0.901887756109     
         C46       C         0.726717019729      0.168255463172      0.932307369043     
         C47       C         0.719432811506      0.222373305825      0.985529306442     
         C48       C         0.673664010862      0.239015840658      0.0300173551275    
         H49       H         0.668686832916      0.276000814576      0.0663964318184    
         C50       C         0.771106482625      0.268588521266 
          0.00167174539778    
         C51       C         0.810455632672      0.253476813443      0.94641893241      
         H52       H         0.821854566199      0.214957843161      0.920801686403     
         C53       C         0.763825091564      0.32270210976       0.054891863443     
         H54       H         0.732544110043      0.334077188696      0.0853144099965    
         C55       C         0.802309683986      0.360177417581      0.0636257521559    
         H56       H         0.79733250604       0.397162391499      0.100004828847     
         C57       C         0.848077772453      0.343535967552      0.0191365892048    
         C58       C         0.855361980675      0.289418124899      0.965914651806     
         H59       H         0.886641569389      0.278045130514      0.935496153137     
         C60       C         0.406523152247      0.932201737439      0.15987116278      
         C61       C         0.0928581193102     0.565942077231      0.840543609687     
         C62       C         0.433931210372      0.891086874749      0.913010230194     
         C63       C         0.0654497227957     0.607056461769      0.0874063005705    
         C64       C         0.398094822435      0.890093707622      0.0314244051301    
         C65       C         0.101286618316      0.608050346125      0.968989488189     
         H66       H         0.38714259428       0.941169112951      0.259387928816     
         H67       H         0.112238846472      0.556974940796      0.741025964503     
         H68       H         0.437056382242      0.866291615793      0.80980738988      
         H69       H         0.0623250191074     0.631852015917      0.190605094865     
         C70       C         0.135798962407      0.700922555205      0.0213076151821    
         H71       H         0.104518452906      0.712298085077      0.0517339219534    
         C72       C         0.143080492312      0.646807318593      0.968093773358     
         C73       C         0.188850294517      0.630166514982      0.923591431435     
         H74       H         0.19382749355       0.593175595843      0.887221740553     
         H75       H         0.258613587487      0.656263805978      0.90189714112      
         C76       C         0.22733518293       0.667636166456      0.932320514308     
         C77       C         0.220051548081      0.721754572462      0.985537289715     
         C78       C         0.17428343782       0.738397766837      0.0300308401521    
         H79       H         0.169306651787      0.775383125817      0.0664063889373    
         C80       C         0.271725108271      0.767969702618 
          0.00166593354814    
         C81       C         0.311073490277      0.75285725882       0.946408400531     
         H82       H         0.322472109509      0.714337979869      0.920793900743     
         C83       C         0.264444290551      0.822083854434      0.054880889662     
         H84       H         0.23316378105       0.833459384305      0.0853071964334    
         C85       C         0.302928765964      0.859559066065      0.063604114632     
         H86       H         0.297951979931      0.896544425046      0.0999796634172    
         C87       C         0.34869616404       0.842916956487      0.0191094499049    
         C88       C         0.355979798889      0.788798550481      0.965892674498     
         H89       H         0.387258915631      0.777425105207      0.9354704156       
         C90       C         0.905603452507      0.565581162299      0.658584513255     
         C91       C         0.592540362163      0.932562652371      0.341830259213     
         C92       C         0.933014451284      0.606693769538      0.41172542318      
         C93       C         0.565128634341      0.891450052535      0.588689372547     
         C94       C         0.89699150054       0.607465139848      0.529310800915     
         C95       C         0.601152678654      0.890678671121      0.471103959922     
         H96       H         0.886153383849      0.556532448438      0.75779502848      
         H97       H         0.611990795344      0.941611362531      0.242619732358     
         H98       H         0.936073616301      0.631407150404      0.308222681513     
         H99       H         0.562070516628      0.866737074301      0.692190640158     
         C100      C         0.664792614651      0.832909835434      0.652803121812     
         H101      H         0.652616565418      0.844558731294      0.768075479681     
         C102      C         0.643797453699      0.852946658669      0.473997672873     
         C103      C         0.661613051808      0.835897450675      0.30534611271      
         H104      H         0.647260744739      0.849592896575      0.183123952828     
         H105      H         0.712593068906      0.787162566717      0.200242375924     
         C106      C         0.700416520415      0.798811493475      0.31550023408      
         C107      C         0.721412180626      0.778774639342      0.494320182732     
         C108      C         0.703600227743      0.795823810321      0.662971626598     
         H109      H         0.717948390328      0.782128432334      0.785179403064     
         C110      C         0.770308018626      0.729211766933      0.498125565878     
         C111      C         0.787888695142      0.718089579847      0.346193484736     
         H112      H         0.773771309666      0.725858004839      0.207251845832     
         C113      C         0.791302661617      0.709174546023      0.676926665726     
         H114      H         0.779126612384      0.720823441882      0.792199023596     
         C115      C         0.830110274709      0.67208852091       0.687095170513     
         H116      H         0.844458437294      0.658393142923      0.809302946979     
         C117      C         0.847922745553      0.655039747606      0.518448075736     
         C118      C         0.826927085343      0.675076601739      0.339628127084     
         H119      H         0.839103115872      0.663427277306      0.224365919839     
         Fe120     Fe        1.0       0.488380107562      0.750236002938      
         Fe121     Fe        1.0       0.511619892438      0.250236002938      
         N122      N         0.947968622148      0.460242317394      0.120828002938     
         N123      N         0.947968622148      0.539757682606      0.620828002938     
         N124      N         0.0520313778524     0.460242317394      0.379644002938     
         N125      N         0.0520313778524     0.539757682606      0.879644002938     
         N126      N         0.965013092219      0.434933750403      0.968287002938     
         N127      N         0.965013092219      0.565066249597      0.468287002938     
         N128      N         0.0349869077806     0.434933750403      0.532185002938     
         N129      N         0.0349869077806     0.565066249597      0.0321850029385    
         Fe130     Fe        0.5       0.988380107562      0.750178542821      
         Fe131     Fe        0.5       0.0116198924376     0.250178542821      
         N132      N         0.447968622148      0.960242317394      0.120770542821     
         N133      N         0.447968622148      0.0397576826061     0.620770542821     
         N134      N         0.552031377852      0.960242317394      0.379586542821     
         N135      N         0.552031377852      0.0397576826061     0.879586542821     
         N136      N         0.465013092219      0.934933750403      0.968229542821     
         N137      N         0.465013092219      0.065066249597      0.468229542821     
         N138      N         0.534986907781      0.934933750403      0.532127542821     
         N139      N         0.534986907781      0.065066249597      0.0321275428214