
##########################################################################
#               Crystallographic Information Format file 
#               Produced by PyCifRW module
# 
#  This is a CIF file.  CIF has been adopted by the International
#  Union of Crystallography as the standard for data archiving and 
#  transmission.
#
#  For information on this file format, follow the CIF links at
#  http://www.iucr.org
##########################################################################

data_ZEOPP

_cell_length_a                          7.2480997085
_cell_length_b                          6.44067729767
_cell_length_c                          6.9533
_cell_angle_alpha                       90
_cell_angle_beta                        97.343
_cell_angle_gamma                       90
_symmetry_space_group_name_H-M          P1
_symmetry_Int_Tables_number             1
_symmetry_cell_setting                  Monoclinic
loop_
  _symmetry_equiv_pos_as_xyz
         '+x,+y,+z' 
loop_
  _atom_site_label
  _atom_site_type_symbol
  _atom_site_fract_x
  _atom_site_fract_y
  _atom_site_fract_z
         C0        C         0.421028167766      0.161672052915      0.56794857294      
         C1        C         0.0789722599496     0.338329595352      0.43284562248      
         H2        H         0.96208246652       0.39869900016       0.386678042326     
         H3        H         0.537919036502      0.101300815046      0.61411642984      
         C4        C         0.921027163107      0.338404744632      0.0678222967056    
         C5        C         0.578972592827      0.161596163476      0.932970219609     
         H6        H         0.462082818628      0.101176811785      0.886887274826     
         H7        H         0.0379184863247     0.398824127234      0.113906701329     
         C8        C         0.421028057126      0.838328368831      0.0679482960206    
         C9        C         0.0789716998195     0.6616725398        0.932844220536     
         H10       H         0.962081315368      0.601305387904      0.886675161118     
         H11       H         0.53791998991       0.898695550673      0.114118816114     
         C12       C         0.921027274015      0.66159567699       0.567822573712     
         C13       C         0.578973154315      0.838405971045      0.432971621993     
         H14       H         0.46208397257       0.898827574981      0.386890156938     
         H15       H         0.037917530607      0.601172239559      0.613904314307     
         Fe16      Fe        1.0       0.456068843862      0.750336441187      
         Fe17      Fe        1.0       0.543931156138      0.250336441187      
         N18       N         0.803285736353      0.349688715137      0.120928441187     
         N19       N         0.803285736353      0.650311284863      0.620928441187     
         N20       N         0.196714263647      0.349688715137      0.379744441187     
         N21       N         0.196714263647      0.650311284863      0.879744441187     
         N22       N         0.86772551323       0.254004988796      0.968387441187     
         N23       N         0.86772551323       0.745995011204      0.468387441187     
         N24       N         0.13227448677       0.254004988796      0.532285441187     
         N25       N         0.13227448677       0.745995011204      0.0322854411866    
         Fe26      Fe        0.5       0.956068843862      0.750457454561      
         Fe27      Fe        0.5       0.0439311561383     0.250457454561      
         N28       N         0.303285736353      0.849688715137      0.121049454561     
         N29       N         0.303285736353      0.150311284863      0.621049454561     
         N30       N         0.696714263647      0.849688715137      0.379865454561     
         N31       N         0.696714263647      0.150311284863      0.879865454561     
         N32       N         0.36772551323       0.754004988796      0.968508454561     
         N33       N         0.36772551323       0.245995011204      0.468508454561     
         N34       N         0.63227448677       0.754004988796      0.532406454561     
         N35       N         0.63227448677       0.245995011204      0.032406454561