
##########################################################################
#               Crystallographic Information Format file 
#               Produced by PyCifRW module
# 
#  This is a CIF file.  CIF has been adopted by the International
#  Union of Crystallography as the standard for data archiving and 
#  transmission.
#
#  For information on this file format, follow the CIF links at
#  http://www.iucr.org
##########################################################################

data_ZEOPP

_cell_length_a                          13.8584280754
_cell_length_b                          12.3146295824
_cell_length_c                          6.9533
_cell_angle_alpha                       90
_cell_angle_beta                        97.343
_cell_angle_gamma                       90
_symmetry_space_group_name_H-M          P1
_symmetry_Int_Tables_number             1
_symmetry_cell_setting                  Monoclinic
loop_
  _symmetry_equiv_pos_as_xyz
         '+x,+y,+z' 
loop_
  _atom_site_label
  _atom_site_type_symbol
  _atom_site_fract_x
  _atom_site_fract_y
  _atom_site_fract_z
         C0        C         0.311997016057      0.129204745578      0.646451734812     
         C1        C         0.188002994526      0.370794848755      0.353410704642     
         C2        C         0.369352132151      0.207691544493      0.400334656447     
         C3        C         0.13064642987       0.2923080072        0.599527675656     
         C4        C         0.295035099187      0.208678565816      0.510520065225     
         C5        C         0.204964890229      0.29132183985       0.489342325679     
         H6        H         0.27168742613       0.11175274082       0.742775450772     
         H7        H         0.228312563287      0.388247664846      0.257086940132     
         H8        H         0.376141139597      0.254691561637      0.29455580233      
         H9        H         0.123858870986      0.245308032696      0.705306637124     
         C10       C         0.812764332565      0.369849256926      0.147941131273     
         C11       C         0.687235906546      0.130150827305      0.851921865798     
         C12       C         0.870001896269      0.291261604333      0.901788456892     
         C13       C         0.629997601866      0.208737527484      0.0980761632572    
         C14       C         0.796183298567      0.289705358441      0.013195855091     
         C15       C         0.703816462323      0.210294557327      0.986665978197     
         H16       H         0.772665021717      0.387114330616      0.244723040919     
         H17       H         0.727334739173      0.112885585152      0.755138792369     
         H18       H         0.876903508272      0.243993448688      0.796435771359     
         H19       H         0.623096730839      0.256006635543      0.203427225711     
         C20       C         0.312707121231      0.869794757281      0.14818767651      
         C21       C         0.187293117644      0.630205326736      0.851675321031     
         C22       C         0.370061681511      0.791308741476      0.902069239388     
         C23       C         0.129937815537      0.708690389432      0.0977953785065    
         C24       C         0.296183619963      0.789703234803      0.0133277691812    
         C25       C         0.203816141163      0.71029668118       0.986534063635     
         H26       H         0.272559418557      0.887018672256      0.244907146289     
         H27       H         0.227440342568      0.612981243727      0.754954686527     
         H28       H         0.377010976325      0.744082888696      0.796682227967     
         H29       H         0.12298926255       0.755917195321      0.203180769575     
         C30       C         0.812053491265      0.629150886331      0.646205024278     
         C31       C         0.687946519317      0.870848707994      0.353657414651     
         C32       C         0.86929161136       0.707739321533      0.400053708785     
         C33       C         0.630706950779      0.792260230094      0.599808625356     
         C34       C         0.795033587185      0.708677477955      0.510387883785     
         C35       C         0.704966402233      0.79132292772       0.489474507643     
         H36       H         0.771792125344      0.611657868854      0.742591142422     
         H37       H         0.728207864074      0.888342536821      0.257271249007     
         H38       H         0.876032769834      0.754781786095      0.294309143244     
         H39       H         0.623967240748      0.74521780823       0.705553295685     
         Fe40      Fe        1.0       0.477023555755      0.749685049241      
         Fe41      Fe        1.0       0.522976444245      0.249685049241      
         N42       N         0.897116426968      0.421385659753      0.120277049241     
         N43       N         0.897116426968      0.578614340247      0.620277049241     
         N44       N         0.102883573032      0.421385659753      0.379093049241     
         N45       N         0.102883573032      0.578614340247      0.879093049241     
         N46       N         0.930819089742      0.371342091664      0.967736049241     
         N47       N         0.930819089742      0.628657908336      0.467736049241     
         N48       N         0.0691809102581     0.371342091664      0.531634049241     
         N49       N         0.0691809102581     0.628657908336      0.0316340492414    
         Fe50      Fe        0.5       0.977023555755      0.750177365938      
         Fe51      Fe        0.5       0.0229764442452     0.250177365938      
         N52       N         0.397116426968      0.921385659753      0.120769365938     
         N53       N         0.397116426968      0.0786143402466     0.620769365938     
         N54       N         0.602883573032      0.921385659753      0.379585365938     
         N55       N         0.602883573032      0.0786143402466     0.879585365938     
         N56       N         0.430819089742      0.871342091664      0.968228365938     
         N57       N         0.430819089742      0.128657908336      0.468228365938     
         N58       N         0.569180910258      0.871342091664      0.532126365938     
         N59       N         0.569180910258      0.128657908336      0.0321263659376