
##########################################################################
#               Crystallographic Information Format file 
#               Produced by PyCifRW module
# 
#  This is a CIF file.  CIF has been adopted by the International
#  Union of Crystallography as the standard for data archiving and 
#  transmission.
#
#  For information on this file format, follow the CIF links at
#  http://www.iucr.org
##########################################################################

data_ZEOPP

_cell_length_a                          33.5904361381
_cell_length_b                          29.8485352236
_cell_length_c                          6.9533
_cell_angle_alpha                       90
_cell_angle_beta                        97.343
_cell_angle_gamma                       90
_symmetry_space_group_name_H-M          P1
_symmetry_Int_Tables_number             1
_symmetry_cell_setting                  Monoclinic
loop_
  _symmetry_equiv_pos_as_xyz
         '+x,+y,+z' 
loop_
  _atom_site_label
  _atom_site_type_symbol
  _atom_site_fract_x
  _atom_site_fract_y
  _atom_site_fract_z
         C0        C         0.424516030369      0.0542135497991     0.662440456709     
         C1        C         0.0754839696313     0.445786450201      0.33844274931      
         C2        C         0.446559495867      0.0880650982489     0.41550656207      
         C3        C         0.0534399105824     0.411934915089      0.585376704739     
         C4        C         0.41754407645       0.0887751813601     0.535138185372     
         C5        C         0.0824562203255     0.411224811971      0.465744990252     
         N6        N         0.457840871977      0.0321433070424     0.62148792594      
         N7        N         0.0421591280226     0.467856692958      0.379395280079     
         N8        N         0.471464395672      0.0530646307702     0.468874098761     
         N9        N         0.0285356043276     0.44693536923       0.532009107258     
         H10       H         0.408857579381      0.0467904915909     0.762419360288     
         H11       H         0.0911427173947     0.45320950174       0.238463815336     
         H12       H         0.449002609778      0.10844126457       0.312710842413     
         H13       H         0.0509976492976     0.391559070164      0.688170911295     
         C14       C         0.13423231588       0.363025020359      0.642089632005     
         H15       H         0.12472958913       0.372372715384      0.758636655778     
         C16       C         0.116844778647      0.380010197316      0.464912260668     
         C17       C         0.130748843059      0.366328911908      0.294395464808     
         H18       H         0.118862719056      0.377938548563      0.173286202276     
         H19       H         0.171537680685      0.326314822813      0.184524119188     
         C20       C         0.162034509199      0.335662582917      0.301056648185     
         C21       C         0.179422491169      0.318677340881      0.478248514297     
         C22       C         0.165521394509      0.332358559602      0.648765006208     
         H23       H         0.177404106023      0.320749054713      0.769860077913     
         C24       C         0.218795430717      0.277747216123      0.477522255684     
         C25       C         0.232606865917      0.268862709831      0.324006387361     
         H26       H         0.220813371126      0.27567556737       0.185896197292     
         C27       C         0.23618253098       0.260761730463      0.654695281421     
         H28       H         0.22667980423       0.270109425488      0.771242305194     
         C29       C         0.267471609609      0.230095269706      0.661370655623     
         H30       H         0.279354321123      0.218485764818      0.782465727329     
         C31       C         0.281373143239      0.216414359688      0.490858509313     
         C32       C         0.263985161269      0.233399601724      0.3136666432       
         H33       H         0.273487895785      0.224051532917      0.197129768603     
         H34       H         0.329087431753      0.175562430774      0.808326835235     
         C35       C         0.338589412202      0.166213055247      0.691785562747     
         C36       C         0.321203061077      0.183198914207      0.514597948216     
         C37       C         0.335105081932      0.169519349956      0.344081502931     
         H38       H         0.323220561678      0.181128263953      0.222976381733     
         H39       H         0.375895523308      0.129504538203      0.234214298644     
         C40       C         0.366392351821      0.138852298307      0.350746827641     
         C41       C         0.383780333791      0.121867056271      0.527938693754     
         C42       C         0.369877784181      0.135547632037      0.698456731993     
         H43       H         0.381761948645      0.123938770103      0.819550257369     
         C44       C         0.92429182815       0.446059744143      0.160634538166     
         C45       C         0.57570817185       0.0539402558573     0.840248667852     
         C46       C         0.946315074203      0.412188820832      0.91369530795      
         C47       C         0.553684649196      0.0878107922043     0.087189665748     
         C48       C         0.917168967491      0.411655642207      0.0326252852002    
         C49       C         0.58283117081       0.0883445512751     0.968257036979     
         N50       N         0.957840006708      0.467856450126      0.120817275991     
         N51       N         0.542159993292      0.0321435498737     0.880065930027     
         N52       N         0.971451172546      0.446922988802      0.968200896559     
         N53       N         0.528548827454      0.0530770111983 
          0.0326823094594     
         H54       H         0.908590252695      0.453551835981      0.260358486085     
         H55       H         0.591409885605      0.0464483575006     0.740523836094     
         H56       H         0.948697552335      0.391866848317      0.810635367101     
         H57       H         0.551302551247      0.108133000015      0.190245550262     
         C58       C         0.611369327803      0.163966818172      0.0193125139925    
         H59       H         0.585926777772      0.173433175539      0.0500483746109    
         C60       C         0.617061091967      0.119742537593      0.966474590766     
         C61       C         0.654288789008      0.105894534311      0.921519279573     
         H62       H         0.658179321802      0.0756646649004     0.885406554965     
         H63       H         0.711262803737      0.126803183334      0.898686640754     
         C64       C         0.685821955876      0.136266941967      0.929419568398     
         C65       C         0.680128489542      0.18049382128       0.982260424598     
         C66       C         0.642902175505      0.194343759382      0.0272068973958    
         H67       H         0.639011961877      0.224569095238      0.063325527425     
         C68       C         0.722455084504      0.217937294603      0.997315179253     
         C69       C         0.75444519169       0.205361474731      0.941668628481     
         H70       H         0.763573314338      0.17385942191       0.916247143453     
         C71       C         0.716763897625      0.262160687356      0.0501542179455    
         H72       H         0.691321347594      0.271627044723      0.080890078564     
         C73       C         0.748296745327      0.292537628566      0.0580486013488    
         H74       H         0.744406531699      0.322762964422      0.094167231378     
         C75       C         0.785522482078      0.278688578289      0.0131010130858    
         C76       C         0.791215948412      0.234461698977      0.960260156885     
         H77       H         0.816657373559      0.224997052518      0.929528344707     
         H78       H         0.788939955197      0.371816140089      0.09189558136      
         C79       C         0.814382434135      0.362350668153      0.0611691030421    
         C80       C         0.82007567145       0.318125365317 
          0.00832248449904    
         C81       C         0.857301375711      0.304275581276      0.963367802591     
         H82       H         0.861192499226      0.27404762945       0.927253761714     
         H83       H         0.914275981162      0.325186147884      0.940533847503     
         C84       C         0.888835133301      0.334649906517      0.971266775147     
         C85       C         0.883141666966      0.378876785829      0.0241076313475    
         C86       C         0.845914901081      0.392726186949      0.0690610396769    
         H87       H         0.842025139302      0.422952059788      0.105172734174     
         C88       C         0.424288013299      0.946055473104      0.161212727771     
         C89       C         0.0757119867009     0.553944526896      0.839670478248     
         C90       C         0.446331254838      0.912204188889      0.914277627252     
         C91       C         0.0536684684113     0.587795424001      0.0866073453263    
         C92       C         0.417174618118      0.911660719133      0.0331488839302    
         C93       C         0.0828255202573     0.588339474422      0.967733438809     
         N94       N         0.457840871977      0.967856692958      0.12148792594      
         N95       N         0.0421591280226     0.532143307042      0.879395280079     
         N96       N         0.471464395672      0.94693536923       0.968874098761     
         N97       N         0.0285356043276     0.55306463077       0.0320091072579    
         H98       H         0.408578032437      0.953539328148      0.26091417529      
         H99       H         0.0914221059385     0.546460865407      0.739968147449     
         H100      H         0.448721747587      0.891890106945      0.811198575637     
         H101      H         0.0512783561754     0.608109741564      0.18968234181      
         C102      C         0.111361196705      0.663959165022      0.0189429969847    
         H103      H         0.0859150878423     0.673422057063      0.0496449056624    
         C104      C         0.117057240306      0.619739132625      0.966056233474     
         C105      C         0.154290143302      0.605896198502      0.921150604631     
         H106      H         0.158183600944      0.575669232582      0.885004494391     
         H107      H         0.211268641582      0.626809132076      0.898450429614     
         C108      C         0.185824235193      0.636269425679      0.929149404895     
         C109      C         0.180126489118      0.680492056513      0.982039101802     
         C110      C         0.142894969874      0.694336926185      0.0269358978474    
         H111      H         0.139001830953      0.72455935812       0.0630879074882    
         C112      C         0.222453979355      0.717936293988      0.99722124594      
         C113      C         0.254449867986      0.705366115064      0.941617256464     
         H114      H         0.263580339993      0.673866393945      0.916169506857     
         C115      C         0.21675851298       0.762155438502      0.0501091246633    
         H116      H         0.191312404117      0.771618330542      0.080811033341     
         C117      C         0.248292286149      0.792533199665      0.058102025526     
         H118      H         0.244399147228      0.822755631599      0.0942540351668    
         C119      C         0.285523228167      0.778689217877      0.0132041142682    
         C120      C         0.291220974241      0.734466587043      0.96031441736      
         H121      H         0.316665957857      0.725005405555      0.929616557293     
         H122      H         0.288934917546      0.871810978396      0.0921307245783    
         C123      C         0.314380954592      0.862348971076      0.0614381988596    
         C124      C         0.320078472081      0.818127917143 
          0.00854274166762    
         C125      C         0.357309382153      0.804283202126      0.963637736023     
         H126      H         0.361203430648      0.774058153916      0.927490313307     
         H127      H         0.414288471286      0.825198053409      0.94093624853      
         C128      C         0.388844064897      0.834658347013      0.97163522381      
         C129      C         0.383146318822      0.878880977847      0.0245249207182    
         C130      C         0.345914347174      0.892725309992      0.0694286504065    
         H131      H         0.342021660657      0.922948279453      0.105573726404     
         C132      C         0.924519929164      0.554209196318      0.661862290562     
         C133      C         0.575480070836      0.945790803682      0.339020915457     
         C134      C         0.946543399259      0.588080383783      0.414924266248     
         C135      C         0.553456007224      0.911919629523      0.585959001647     
         C136      C         0.917538561838      0.588780124704      0.53461462465      
         C137      C         0.582461734921      0.911219868643      0.46626855043      
         N138      N         0.957840006708      0.532143549874      0.620817275991     
         N139      N         0.542159993292      0.967856450126      0.380065930027     
         N140      N         0.971451172546      0.553077011198      0.468200896559     
         N141      N         0.528548827454      0.946922988802      0.532682309459     
         H142      H         0.908869902554      0.546777882684      0.761863699841     
         H143      H         0.591130394205      0.953222110663      0.239019475239     
         H144      H         0.948978517924      0.608464421649      0.312147662771     
         H145      H         0.551021741028      0.891535913207      0.688734090869     
         C146      C         0.634248866931      0.863009097886      0.642461501916     
         H147      H         0.624755568535      0.872347563064      0.759044117832     
         C148      C         0.616848552091      0.880006869166      0.465330596103     
         C149      C         0.630738822086      0.866339087736      0.294761717901     
         H150      H         0.618843964016      0.877957333176      0.173684217651     
         H151      H         0.671517215973      0.826335136754      0.18475624294      
         C152      C         0.662023471746      0.835673668087      0.301324364281     
         C153      C         0.679424232417      0.818675830653      0.478469764669     
         C154      C         0.665536930009      0.832343545552      0.649038333486     
         H155      H         0.677428374661      0.820725432797      0.770101648546     
         C156      C         0.718795188979      0.7777475383        0.477615812618     
         C157      C         0.732594148167      0.76887524776       0.324055512245     
         H158      H         0.720790600904      0.77569800231       0.185969434167     
         C159      C         0.736195066535      0.760749458626      0.65474237298      
         H160      H         0.726701768139      0.770087923805      0.771324988896     
         C161      C         0.767483129613      0.730083906293      0.66131920455      
         H162      H         0.779374574265      0.718465793537      0.78238251961      
         C163      C         0.781370869305      0.716416499787      0.490754981184     
         C164      C         0.763970108634      0.733414337221      0.313609580797     
         H165      H         0.773463415577      0.724075497495      0.197037114004     
         H166      H         0.829107251464      0.675542751464      0.808095822771     
         C167      C         0.838599804036      0.666202605316      0.691518957413     
         C168      C         0.821200674461      0.683201059425      0.514377806741     
         C169      C         0.835088901025      0.669534999033      0.343809285196     
         H170      H         0.823195646946      0.681152521575      0.222735922591     
         H171      H         0.875868898903      0.629530325154      0.23380794788      
         C172      C         0.866375154675      0.638868856486      0.350376069221     
         C173      C         0.883775915346      0.621871019052      0.527521469608     
         C174      C         0.869887160176      0.635538090815      0.698091586541     
         H175      H         0.881780057591      0.623920621196      0.819153353486     
         Fe176     Fe        1.0       0.49052059346       0.750105473379      
         Fe177     Fe        1.0       0.50947940654       0.250105473379      
         N178      N         0.957553257387      0.467566030536      0.120697473379     
         N179      N         0.957553257387      0.532433969464      0.620697473379     
         N180      N         0.0424467426127     0.467566030536      0.379513473379     
         N181      N         0.0424467426127     0.532433969464      0.879513473379     
         N182      N         0.971457986879      0.446919523115      0.968156473379     
         N183      N         0.971457986879      0.553080476885      0.468156473379     
         N184      N         0.0285420131212     0.446919523115      0.532054473379     
         N185      N         0.0285420131212     0.553080476885      0.0320544733785    
         Fe186     Fe        0.5       0.99052059346       0.75077773264       
         Fe187     Fe        0.5       0.00947940653974    0.25077773264       
         N188      N         0.457553257387      0.967566030536      0.12136973264      
         N189      N         0.457553257387      0.0324339694645     0.62136973264      
         N190      N         0.542446742613      0.967566030536      0.38018573264      
         N191      N         0.542446742613      0.0324339694645     0.88018573264      
         N192      N         0.471457986879      0.946919523115      0.96882873264      
         N193      N         0.471457986879      0.0530804768855     0.46882873264      
         N194      N         0.528542013121      0.946919523115      0.53272673264      
         N195      N         0.528542013121      0.0530804768855 
          0.0327267326402 