
##########################################################################
#               Crystallographic Information Format file 
#               Produced by PyCifRW module
# 
#  This is a CIF file.  CIF has been adopted by the International
#  Union of Crystallography as the standard for data archiving and 
#  transmission.
#
#  For information on this file format, follow the CIF links at
#  http://www.iucr.org
##########################################################################

data_ZEOPP

_cell_length_a                          17.9137777778
_cell_length_b                          15.9182222222
_cell_length_c                          6.9533
_cell_angle_alpha                       90
_cell_angle_beta                        97.343
_cell_angle_gamma                       90
_symmetry_space_group_name_H-M          P1
_symmetry_Int_Tables_number             1
_symmetry_cell_setting                  Monoclinic
loop_
  _symmetry_equiv_pos_as_xyz
         '+x,+y,+z' 
loop_
  _atom_site_label
  _atom_site_type_symbol
  _atom_site_fract_x
  _atom_site_fract_y
  _atom_site_fract_z
         C0        C         0.356581518332      0.100990261117      0.653664045354     
         C1        C         0.14432597401       0.399916914593      0.34670939043      
         C2        C         0.399297675138      0.163144491712      0.406970343312     
         C3        C         0.101608699381      0.337762673896      0.593403063091     
         C4        C         0.343220767269      0.163987009486      0.521623675789     
         C5        C         0.157686719974      0.336920794388      0.478749746637     
         C6        C         0.222833709314      0.277026255406      0.495061037844     
         H7        H         0.326292898925      0.0871922778996     0.751759391353     
         H8        H         0.174614588318      0.413715525975      0.248614031073     
         H9        H         0.404086540245      0.200386467007      0.302489643616     
         H10       H         0.0968209520967     0.300520708703      0.697883792168     
         C11       C         0.278073783028      0.223880920304      0.50531239794      
         C12       C         0.857837137931      0.399466266431      0.154712327016     
         C13       C         0.644885520245      0.101441295976      0.845661670935     
         C14       C         0.900552464158      0.33731227832       0.908017160254     
         C15       C         0.6021696483        0.16359455247       0.0923585351472    
         C16       C         0.844690886847      0.336191015847      0.0233204563053    
         C17       C         0.658031393731      0.16471640133       0.977052403955     
         C18       C         0.722775444361      0.225133323728      0.99214646864      
         H19       H         0.827628236356      0.413161243275      0.25304806034      
         H20       H         0.675094044222      0.087746173903      0.74732479992      
         H21       H         0.90541943423       0.299968702563      0.803772835542     
         H22       H         0.597303223945      0.200938859844      0.196601162408     
         C23       C         0.779947213815      0.275774238679 
          0.00822752931042    
         C24       C         0.356929481835      0.900373589541      0.15471432958      
         C25       C         0.143978196756      0.60234895245       0.845659668372     
         C26       C         0.399645184459      0.838219947783      0.908019256651     
         C27       C         0.101261948411      0.664501862588      0.0923564387414    
         C28       C         0.343783412481      0.837098509884      0.0233219498535    
         C29       C         0.157123888513      0.665623886879      0.977050910405     
         C30       C         0.221867951281      0.726040813498      0.992146018251     
         H31       H         0.32672042334       0.91406842335       0.253049820224     
         H32       H         0.174186877654      0.588653973413      0.747323040034     
         H33       H         0.404512306701      0.800876513408      0.803774766306     
         H34       H         0.0963953718896     0.701846028582      0.196599231646     
         C35       C         0.279039727309      0.776681728493 
          0.00822797970151    
         C36       C         0.857489173043      0.601897585501      0.653662042475     
         C37       C         0.645233298883      0.900824569793      0.346711393307     
         C38       C         0.900204953453      0.664052162448      0.406968246601     
         C39       C         0.602516400651      0.838669982744      0.593405159809     
         C40       C         0.844128239395      0.664894505584      0.521622181733     
         C41       C         0.658594227432      0.837828277875      0.478751240695     
         C42       C         0.723741206238      0.777933741638      0.495061489105     
         H43       H         0.827200710239      0.588099459541      0.751757631084     
         H44       H         0.675521756589      0.914623323918      0.248615791345     
         H45       H         0.90499366608       0.701294279412      0.302487712468     
         H46       H         0.597728805847      0.801427875882      0.697885723314     
         C47       C         0.778981265689      0.724788413657      0.505311946677     
         Fe48      Fe        1.0       0.482225  0.750111111111      
         Fe49      Fe        1.0       0.517775  0.250111111111      
         N50       N         0.920407375         0.4391825           0.120703111111     
         N51       N         0.920407375         0.5608175           0.620703111111     
         N52       N         0.079592625         0.4391825           0.379519111111     
         N53       N         0.079592625         0.5608175           0.879519111111     
         N54       N         0.946480375         0.400467875         0.968162111111     
         N55       N         0.946480375         0.599532125         0.468162111111     
         N56       N         0.053519625         0.400467875         0.532060111111     
         N57       N         0.053519625         0.599532125         0.0320601111111    
         Fe58      Fe        0.5       0.982225  0.750138888889      
         Fe59      Fe        0.5       0.017775  0.250138888889      
         N60       N         0.420407375         0.9391825           0.120730888889     
         N61       N         0.420407375         0.0608175           0.620730888889     
         N62       N         0.579592625         0.9391825           0.379546888889     
         N63       N         0.579592625         0.0608175           0.879546888889     
         N64       N         0.446480375         0.900467875         0.968189888889     
         N65       N         0.446480375         0.099532125         0.468189888889     
         N66       N         0.553519625         0.900467875         0.532087888889     
         N67       N         0.553519625         0.099532125         0.0320878888889