
##########################################################################
#               Crystallographic Information Format file 
#               Produced by PyCifRW module
# 
#  This is a CIF file.  CIF has been adopted by the International
#  Union of Crystallography as the standard for data archiving and 
#  transmission.
#
#  For information on this file format, follow the CIF links at
#  http://www.iucr.org
##########################################################################

data_ZEOPP

_cell_length_a                          13.8809144687
_cell_length_b                          12.3346110408
_cell_length_c                          6.9533
_cell_angle_alpha                       90
_cell_angle_beta                        97.343
_cell_angle_gamma                       90
_symmetry_space_group_name_H-M          P1
_symmetry_Int_Tables_number             1
_symmetry_cell_setting                  Monoclinic
loop_
  _symmetry_equiv_pos_as_xyz
         '+x,+y,+z' 
loop_
  _atom_site_label
  _atom_site_type_symbol
  _atom_site_fract_x
  _atom_site_fract_y
  _atom_site_fract_z
         C0        C         0.313214  0.1281    0.628758  
         C1        C         0.186786  0.3719    0.347897  
         C2        C         0.367655  0.208945  0.38194   
         C3        C         0.132344  0.291055  0.594715  
         C4        C         0.294903  0.208727  0.49569   
         C5        C         0.205097  0.291273  0.480965  
         H6        H         0.274141  0.10967   0.72655   
         H7        H         0.225859  0.390331  0.250105  
         H8        H         0.373287  0.256904  0.277053  
         H9        H         0.126713  0.243096  0.699602  
         C10       C         0.870292  0.293303  0.895528  
         C11       C         0.629708  0.206697  0.081127  
         C12       C         0.810598  0.369587  0.140823  
         C13       C         0.689401  0.130413  0.835829  
         C14       C         0.794842  0.291392  0.002486  
         C15       C         0.705158  0.208608  0.974169  
         H16       H         0.878055  0.247274  0.789051  
         H17       H         0.621945  0.252726  0.187604  
         H18       H         0.769341  0.386198  0.235777  
         H19       H         0.730659  0.113802  0.740878  
         C20       C         0.186786  0.6281    0.847897  
         C21       C         0.313214  0.8719    0.128758  
         C22       C         0.132345  0.708945  0.094715  
         C23       C         0.367656  0.791055  0.88194   
         C24       C         0.205097  0.708727  0.980965  
         C25       C         0.294903  0.791273  0.99569   
         H26       H         0.225859  0.60967   0.750105  
         H27       H         0.274141  0.890331  0.22655   
         H28       H         0.126713  0.756904  0.199602  
         H29       H         0.373287  0.743096  0.777053  
         C30       C         0.870985  0.70771   0.397259  
         C31       C         0.629016  0.79229   0.579395  
         C32       C         0.811289  0.631426  0.642553  
         C33       C         0.688711  0.868576  0.334101  
         C34       C         0.795961  0.710247  0.505287  
         C35       C         0.704038  0.789753  0.471367  
         H36       H         0.878905  0.75397   0.291178  
         H37       H         0.621095  0.74603   0.685477  
         H38       H         0.770189  0.615043  0.737898  
         H39       H         0.729811  0.884957  0.238757  
         Fe40      Fe        1.0       0.477061  0.75      
         Fe41      Fe        1.0       0.522939  0.25      
         N42       N         0.897283  0.421513  0.120592  
         N43       N         0.897283  0.578487  0.620592  
         N44       N         0.102717  0.421513  0.379408  
         N45       N         0.102717  0.578487  0.879408  
         N46       N         0.930931  0.371551  0.968051  
         N47       N         0.930931  0.628449  0.468051  
         N48       N         0.069069  0.371551  0.531949  
         N49       N         0.069069  0.628449  0.031949  
         Fe50      Fe        0.5       0.977061  0.726655  
         Fe51      Fe        0.5       0.022939  0.226655  
         N52       N         0.397283  0.921513  0.097247  
         N53       N         0.397283  0.078487  0.597247  
         N54       N         0.602717  0.921513  0.356063  
         N55       N         0.602717  0.078487  0.856063  
         N56       N         0.430931  0.871551  0.944706  
         N57       N         0.430931  0.128449  0.444706  
         N58       N         0.569069  0.871551  0.508604  
         N59       N         0.569069  0.128449  0.008604 