#******************************************
#
# CIF file created by Zeo++
# Zeo++ is an open source package to
# analyze microporous materials
#
#*******************************************
data_ZEOPP
_cell_length_a		20.153
_cell_length_b		17.908
_cell_length_c		6.9533
_cell_angle_alpha		90
_cell_angle_beta		97.343
_cell_angle_gamma		90

_symmetry_space_group_name_H-M		'P1'
_symmetry_Int_Tables_number		1
_symmetry_cell_setting		Monoclinic

loop_
_symmetry_equiv_pos_as_xyz
'+x,+y,+z'

loop_
_atom_site_label
_atom_site_type_symbol
_atom_site_fract_x
_atom_site_fract_y
_atom_site_fract_z
1	Fe	0	0.4842	0.75
2	Fe	0	0.5158	0.25
3	Fe	0.5	0.9842	0.75
4	Fe	0.5	0.0158	0.25
5	C	0.872551	0.410179	0.156225
6	C	0.872551	0.589821	0.656225
7	C	0.372551	0.910179	0.156225
8	C	0.372551	0.089821	0.656225
9	C	0.127449	0.410179	0.343775
10	C	0.127449	0.589821	0.843775
11	C	0.627449	0.910179	0.343775
12	C	0.627449	0.089821	0.843775
13	C	0.910052	0.354497	0.909408
14	C	0.910052	0.645503	0.409408
15	C	0.410051	0.854497	0.909408
16	C	0.410051	0.145503	0.409408
17	C	0.089948	0.354497	0.590592
18	C	0.089948	0.645503	0.090592
19	C	0.589948	0.854497	0.590592
20	C	0.589948	0.145503	0.090592
21	C	0.860685	0.353664	0.025706
22	C	0.860685	0.646336	0.525706
23	C	0.360685	0.853664	0.025706
24	C	0.360685	0.146336	0.525706
25	C	0.139315	0.353664	0.474294
26	C	0.139315	0.646336	0.974294
27	C	0.639315	0.853664	0.474294
28	C	0.639315	0.146336	0.974294
29	C	0.803236	0.299859	0.012364
30	C	0.803236	0.700141	0.512364
31	C	0.303236	0.799859	0.012364
32	C	0.303236	0.200141	0.512364
33	C	0.196764	0.299859	0.487636
34	C	0.196764	0.700141	0.987636
35	C	0.696764	0.799859	0.487636
36	C	0.696764	0.200141	0.987636
37	C	0.72508	0.226661	0.167453
38	C	0.72508	0.773339	0.667453
39	C	0.22508	0.726661	0.167453
40	C	0.22508	0.273339	0.667453
41	C	0.27492	0.226661	0.332547
42	C	0.27492	0.773339	0.832547
43	C	0.77492	0.726661	0.332547
44	C	0.77492	0.273339	0.832547
45	C	0.778316	0.27652	0.179817
46	C	0.778316	0.72348	0.679817
47	C	0.278316	0.77652	0.179817
48	C	0.278316	0.22348	0.679817
49	C	0.221684	0.27652	0.320183
50	C	0.221684	0.72348	0.820183
51	C	0.721684	0.77652	0.320183
52	C	0.721684	0.22348	0.820183
53	N	0.929251	0.44594	0.120592
54	N	0.929251	0.55406	0.620592
55	N	0.429251	0.94594	0.120592
56	N	0.429251	0.05406	0.620592
57	N	0.070749	0.44594	0.379408
58	N	0.070749	0.55406	0.879408
59	N	0.570749	0.94594	0.379408
60	N	0.570749	0.05406	0.879408
61	N	0.952427	0.411527	0.968051
62	N	0.952427	0.588473	0.468051
63	N	0.452427	0.911527	0.968051
64	N	0.452427	0.088473	0.468051
65	N	0.047573	0.411527	0.531949
66	N	0.047573	0.588473	0.031949
67	N	0.547573	0.911527	0.531949
68	N	0.547573	0.088473	0.031949
69	H	0.845911	0.422512	0.254953
70	H	0.845911	0.577488	0.754953
71	H	0.345911	0.922512	0.254953
72	H	0.345911	0.077488	0.754953
73	H	0.154089	0.422512	0.245047
74	H	0.154089	0.577488	0.745047
75	H	0.654089	0.922512	0.245047
76	H	0.654089	0.077488	0.745047
77	H	0.914205	0.321104	0.805458
78	H	0.914205	0.678896	0.305458
79	H	0.414205	0.821104	0.805458
80	H	0.414205	0.178896	0.305458
81	H	0.085795	0.321104	0.694542
82	H	0.085795	0.678896	0.194542
83	H	0.585795	0.821104	0.694542
84	H	0.585795	0.178896	0.194542
85	H	0.708048	0.21071	0.2819
86	H	0.708048	0.78929	0.7819
87	H	0.208048	0.71071	0.2819
88	H	0.208048	0.28929	0.7819
89	H	0.291952	0.21071	0.2181
90	H	0.291952	0.78929	0.7181
91	H	0.791952	0.71071	0.2181
92	H	0.791952	0.28929	0.7181
93	H	0.797669	0.294645	0.302714
94	H	0.797669	0.705355	0.802714
95	H	0.297669	0.794645	0.302714
96	H	0.297669	0.205355	0.802714
97	H	0.202331	0.294645	0.197286
98	H	0.202331	0.705355	0.697286
99	H	0.702331	0.794645	0.197286
100	H	0.702331	0.205355	0.697286
