
##########################################################################
#               Crystallographic Information Format file 
#               Produced by PyCifRW module
# 
#  This is a CIF file.  CIF has been adopted by the International
#  Union of Crystallography as the standard for data archiving and 
#  transmission.
#
#  For information on this file format, follow the CIF links at
#  http://www.iucr.org
##########################################################################

data_ZEOPP

_cell_length_a                          27.360241301
_cell_length_b                          24.3123704271
_cell_length_c                          6.9533
_cell_angle_alpha                       90
_cell_angle_beta                        97.343
_cell_angle_gamma                       90
_symmetry_space_group_name_H-M          P1
_symmetry_Int_Tables_number             1
_symmetry_cell_setting                  Monoclinic
loop_
  _symmetry_equiv_pos_as_xyz
         '+x,+y,+z' 
loop_
  _atom_site_label
  _atom_site_type_symbol
  _atom_site_fract_x
  _atom_site_fract_y
  _atom_site_fract_z
         C0        C         0.407303647186      0.066752032316      0.658521190917     
         C1        C         0.0937697359348     0.434321350805      0.341781934371     
         C2        C         0.434758763455      0.107927133914      0.411662488222     
         C3        C         0.0663138894875     0.393146256661      0.588640660339     
         C4        C         0.398679997752      0.108701641642      0.529248628343     
         C5        C         0.102393750458      0.392371737751      0.471054485308     
         H6        H         0.387823068402      0.057690285238      0.757731898171     
         H7        H         0.113250679808      0.443383094156      0.24257121548      
         H8        H         0.437823646603      0.132678802622      0.308160256727     
         H9        H         0.0632500552868     0.368394991154      0.692141417768     
         C10       C         0.1661302775        0.334509546963      0.652751098346     
         H11       H         0.153935954398      0.346177190097      0.768024049788     
         C12       C         0.145103150803      0.354578722649      0.473946443359     
         C13       C         0.162945486438      0.337502076596      0.305294014582     
         H14       H         0.148571327497      0.351219635945      0.183072397406     
         H15       H         0.214002470139      0.28868865529       0.200188021796     
         C16       C         0.201807646987      0.300356329401      0.315446473525     
         C17       C         0.222835273734      0.280287122738      0.494265628225     
         C18       C         0.20499658899       0.297363731519      0.662917940636     
         H19       H         0.21936659699       0.283646240419      0.785125174466     
         C20       C         0.271804933405      0.230644509738      0.498068838979     
         C21       C         0.28941226328       0.219504108793      0.346136054755     
         H22       H         0.275273110099      0.227285423034      0.207194793026     
         C23       C         0.292831541312      0.210574935788      0.676869144874     
         H24       H         0.280637218211      0.222242578922      0.792142096315     
         C25       C         0.331697852803      0.173429120344      0.687035987163     
         H26       H         0.346067860803      0.159711629244      0.809243220993     
         C27       C         0.349537056336      0.156352909828      0.518388023845     
         C28       C         0.328509429589      0.17642211649       0.339568869145     
         H29       H         0.340703733951      0.164754044115      0.224306068323     
         C30       C         0.908681028719      0.433962591793      0.159658532241     
         C31       C         0.594539120643      0.0671107913275     0.840644593047     
         C32       C         0.936124621395      0.392776928153      0.912795952402     
         C33       C         0.56709518914       0.108295976115      0.0875089315921    
         C34       C         0.90023722517       0.391784618938      0.0312315913291    
         C35       C         0.602983093606      0.109289003609      0.969070654605     
         H36       H         0.889273674427      0.442946352512      0.259183554057     
         H37       H         0.613946644349      0.0581272700356     0.741118691877     
         H38       H         0.939252175243      0.367939914062      0.809600015756     
         H39       H         0.563968104041      0.133133285745      0.190700821777     
         C40       C         0.637546147529      0.202308664244      0.0213326549582    
         H41       H         0.606218072206      0.213701629364      0.0517713398378    
         C42       C         0.644839470455      0.148107857023      0.968136593081     
         C43       C         0.690678871642      0.131441548744      0.92361613811      
         H44       H         0.695664131833      0.0943921372619     0.887258601025     
         H45       H         0.760547528729      0.157581468369      0.90187358063      
         C46       C         0.729221561627      0.168971259156      0.93230933208      
         C47       C         0.72192613048       0.22317524071       0.985508327387     
         C48       C         0.676088423431      0.239843943255      0.0300199888262    
         H49       H         0.671103577323      0.276887786137      0.0663833860135    
         C50       C         0.773677634438      0.269464786123 
          0.00159056620367    
         C51       C         0.813085305231      0.254328614631      0.94631750525      
         H52       H         0.824502295816      0.215749066362      0.920712574148     
         C53       C         0.766385024879      0.323664506925      0.0547877424648    
         H54       H         0.735056949556      0.335057472045      0.0852264273443    
         C55       C         0.804927300781      0.361199785935      0.0634750763328    
         H56       H         0.799942454673      0.398243628818      0.0998384735201    
         C57       C         0.850764294463      0.344532169811      0.0189623005102    
         C58       C         0.85805972561       0.290328188256      0.965763305203     
         H59       H         0.889386406079      0.278937311049      0.935328668137     
         C60       C         0.407604310753      0.935032432173      0.159854367919     
         C61       C         0.0934690723682     0.568187717189      0.840448757369     
         C62       C         0.43505915493       0.893857658448      0.912994458739     
         C63       C         0.0660138892791     0.609362011981      0.0873104247442    
         C64       C         0.399165848845      0.892859670551      0.0314029482369    
         C65       C         0.101907703732      0.610360718278      0.968899297953     
         H66       H         0.388192232374      0.944011635771      0.259368813889     
         H67       H         0.112881320203      0.559208753058      0.740933432301     
         H68       H         0.438191224275      0.869025029891      0.809790138606     
         H69       H         0.0628822888693     0.634194936256      0.19051069897      
         C70       C         0.136469324784      0.703378879848      0.0212310060965    
         H71       H         0.105139259319      0.714769943386      0.0516538643865    
         C72       C         0.143765064357      0.64918044735       0.968013213413     
         C73       C         0.18960737677       0.632516920739      0.923515917624     
         H74       H         0.194594288658      0.595469132303      0.887143526054     
         H75       H         0.259478517571      0.658659147921      0.901834071762     
         C76       C         0.228150560497      0.670047037291      0.932253996473     
         C77       C         0.220852712533      0.724248643957      0.985474722736     
         C78       C         0.175012094676      0.740914565236      0.0299632275474    
         H79       H         0.170025596623      0.777956784835      0.0663414765152    
         C80       C         0.272604685068      0.770538550019 
          0.00161503027764    
         C81       C         0.312015593979      0.755405481983      0.946361835336     
         H82       H         0.323433909369      0.716827234973      0.920745342919     
         C83       C         0.265309658828      0.824735896065      0.0548339372419    
         H84       H         0.233979593363      0.836126959604      0.0852567955319    
         C85       C         0.30385242872       0.862271581454      0.0635661586928    
         H86       H         0.298865930667      0.899313801053      0.0999444076606    
         C87       C         0.349692333244      0.845606746627      0.0190765396004    
         C88       C         0.356990181208      0.791405139961      0.965855813338     
         H89       H         0.388318851615      0.780016164139      0.935437002907     
         C90       C         0.908380313668      0.567821922525      0.658325342107     
         C91       C         0.594839835695      0.935398226838      0.341977783181     
         C92       C         0.935824178481      0.609007913992      0.411463968764     
         C93       C         0.56739524072       0.894212242809      0.588839180291     
         C94       C         0.899751290882      0.609776773775      0.529077250215     
         C95       C         0.603469223561      0.893443371868      0.471225863189     
         H96       H         0.88890444724       0.558755629679      0.757546622215     
         H97       H         0.614316067203      0.944464515964      0.242756491189     
         H98       H         0.938884534628      0.633763979369      0.307970117823     
         H99       H         0.564335933434      0.869456580716      0.692331556638     
         C100      C         0.667212179279      0.835574846901      0.652854042719     
         H101      H         0.655023123054      0.847237417115      0.768143656548     
         C102      C         0.646177786031      0.855651091216      0.474069881471     
         C103      C         0.664012415824      0.838581867227      0.305393070548     
         H104      H         0.649633289868      0.852304258303      0.183185462217     
         H105      H         0.715063694145      0.78977387152       0.200225544392     
         C106      C         0.702874137252      0.801436473308      0.315500658545     
         C107      C         0.723909031168      0.781360197418      0.49429931947      
         C108      C         0.706078052181      0.798429384215      0.662976011557     
         H109      H         0.720453026663      0.784707061906      0.785169239047     
         C110      C         0.772877745829      0.731718406176      0.498044339974     
         C111      C         0.790478104019      0.720584722162      0.346090737416     
         H112      H         0.776333249666      0.728371573262      0.20715992072      
         C113      C         0.793911620111      0.711641763768      0.676824152179     
         H114      H         0.781722563885      0.723304333982      0.792113766008     
         C115      C         0.832777493012      0.674496301082      0.686946121017     
         H116      H         0.847152467495      0.660773978773      0.809139348506     
         C117      C         0.850608990966      0.657427512378      0.518273777973     
         C118      C         0.829574097051      0.677503788267      0.339475117048     
         H119      H         0.841763134976      0.665840788387      0.224195653852     
         Fe120     Fe        1.0       0.488362039775      0.75005402384       
         Fe121     Fe        1.0       0.511637960225      0.25005402384       
         N122      N         0.947887718485      0.460180498117      0.12064602384      
         N123      N         0.947887718485      0.539819501883      0.62064602384      
         N124      N         0.0521122815152     0.460180498117      0.37946202384      
         N125      N         0.0521122815152     0.539819501883      0.87946202384      
         N126      N         0.964958691027      0.4348325788        0.96810502384      
         N127      N         0.964958691027      0.5651674212        0.46810502384      
         N128      N         0.0350413089729     0.4348325788        0.53200302384      
         N129      N         0.0350413089729     0.5651674212        0.0320030238397    
         Fe130     Fe        0.5       0.988362039775      0.750282719499      
         Fe131     Fe        0.5       0.0116379602247     0.250282719499      
         N132      N         0.447887718485      0.960180498117      0.120874719499     
         N133      N         0.447887718485      0.0398195018829     0.620874719499     
         N134      N         0.552112281515      0.960180498117      0.379690719499     
         N135      N         0.552112281515      0.0398195018829     0.879690719499     
         N136      N         0.464958691027      0.9348325788        0.968333719499     
         N137      N         0.464958691027      0.0651674212002     0.468333719499     
         N138      N         0.535041308973      0.9348325788        0.532231719499     
         N139      N         0.535041308973      0.0651674212002 
          0.0322317194992 