
##########################################################################
#               Crystallographic Information Format file 
#               Produced by PyCifRW module
# 
#  This is a CIF file.  CIF has been adopted by the International
#  Union of Crystallography as the standard for data archiving and 
#  transmission.
#
#  For information on this file format, follow the CIF links at
#  http://www.iucr.org
##########################################################################

data_ZEOPP

_cell_length_a                          14.1501673987
_cell_length_b                          12.5738697849
_cell_length_c                          6.9533
_cell_angle_alpha                       90
_cell_angle_beta                        97.343
_cell_angle_gamma                       90
_symmetry_space_group_name_H-M          P1
_symmetry_Int_Tables_number             1
_symmetry_cell_setting                  Monoclinic
loop_
  _symmetry_equiv_pos_as_xyz
         '+x,+y,+z' 
loop_
  _atom_site_label
  _atom_site_type_symbol
  _atom_site_fract_x
  _atom_site_fract_y
  _atom_site_fract_z
         C0        C         0.310694  0.131415  0.645886  
         C1        C         0.189306  0.368584  0.354427  
         C2        C         0.366645  0.208468  0.399695  
         C3        C         0.133354  0.291532  0.600618  
         C4        C         0.294036  0.209438  0.51033   
         C5        C         0.205964  0.290562  0.489982  
         H6        H         0.27133   0.114283  0.742392  
         H7        H         0.22867   0.385718  0.257921  
         H8        H         0.373227  0.25461   0.294037  
         H9        H         0.126773  0.24539   0.706275  
         C10       C         0.81141   0.367625  0.14739   
         C11       C         0.68859   0.132375  0.85261   
         C12       C         0.867325  0.290542  0.901188  
         C13       C         0.632674  0.209457  0.098814  
         C14       C         0.795167  0.288983  0.012942  
         C15       C         0.704833  0.211017  0.987057  
         H16       H         0.77222   0.384547  0.244311  
         H17       H         0.727779  0.115453  0.755688  
         H18       H         0.874051  0.244167  0.795933  
         H19       H         0.625949  0.255833  0.204068  
         C20       C         0.31141   0.867625  0.14739   
         C21       C         0.18859   0.632375  0.85261   
         C22       C         0.367325  0.790542  0.901188  
         C23       C         0.132674  0.709457  0.098814  
         C24       C         0.295167  0.788983  0.012942  
         C25       C         0.204833  0.711017  0.987057  
         H26       H         0.27222   0.884547  0.244311  
         H27       H         0.227779  0.615453  0.755688  
         H28       H         0.374051  0.744167  0.795933  
         H29       H         0.125949  0.755833  0.204068  
         C30       C         0.81071   0.631399  0.645654  
         C31       C         0.68929   0.868601  0.354346  
         C32       C         0.866626  0.708482  0.399452  
         C33       C         0.633372  0.791517  0.600548  
         C34       C         0.794036  0.709438  0.510133  
         C35       C         0.705964  0.790562  0.489867  
         H36       H         0.771362  0.614254  0.742178  
         H37       H         0.728638  0.885746  0.257822  
         H38       H         0.873194  0.754637  0.293805  
         H39       H         0.626806  0.745363  0.706195  
         Fe40      Fe        1.0       0.477497  0.75      
         Fe41      Fe        1.0       0.522503  0.25      
         N42       N         0.899238  0.423006  0.120592  
         N43       N         0.899238  0.576994  0.620592  
         N44       N         0.100762  0.423006  0.379408  
         N45       N         0.100762  0.576994  0.879408  
         N46       N         0.932245  0.373995  0.968051  
         N47       N         0.932245  0.626005  0.468051  
         N48       N         0.067755  0.373995  0.531949  
         N49       N         0.067755  0.626005  0.031949  
         Fe50      Fe        0.5       0.977497  0.750062  
         Fe51      Fe        0.5       0.022503  0.250063  
         N52       N         0.399238  0.923006  0.120654  
         N53       N         0.399238  0.076994  0.620654  
         N54       N         0.600762  0.923006  0.379471  
         N55       N         0.600762  0.076994  0.87947   
         N56       N         0.432245  0.873995  0.968113  
         N57       N         0.432245  0.126005  0.468114  
         N58       N         0.567755  0.873995  0.532011  
         N59       N         0.567755  0.126005  0.032011 