
##########################################################################
#               Crystallographic Information Format file 
#               Produced by PyCifRW module
# 
#  This is a CIF file.  CIF has been adopted by the International
#  Union of Crystallography as the standard for data archiving and 
#  transmission.
#
#  For information on this file format, follow the CIF links at
#  http://www.iucr.org
##########################################################################

data_ZEOPP

_cell_length_a                          13.9019188478
_cell_length_b                          12.3532755781
_cell_length_c                          6.9533
_cell_angle_alpha                       90
_cell_angle_beta                        97.343
_cell_angle_gamma                       90
_symmetry_space_group_name_H-M          P1
_symmetry_Int_Tables_number             1
_symmetry_cell_setting                  Monoclinic
loop_
  _symmetry_equiv_pos_as_xyz
         '+x,+y,+z' 
loop_
  _atom_site_label
  _atom_site_type_symbol
  _atom_site_fract_x
  _atom_site_fract_y
  _atom_site_fract_z
         C0        C         0.310689065542      0.128493679089      0.646506394536     
         C1        C         0.187087987967      0.369282959433      0.353326405953     
         C2        C         0.367888009196      0.206715363452      0.400396777173     
         C3        C         0.129887600255      0.291061232389      0.599435915274     
         C4        C         0.293787479197      0.207702566204      0.510541935777     
         C5        C         0.203989553126      0.290074881106      0.48929081586      
         H6        H         0.27049442939       0.111101914888      0.742813636019     
         H7        H         0.227282602933      0.386675532421      0.257019115619     
         H8        H         0.374663725091      0.253557914033      0.294607575064     
         H9        H         0.123113328418      0.244218724489      0.705225225425     
         C10       C         0.80924057436       0.368349435143      0.147953297953     
         C11       C         0.684090792736      0.129427691689      0.85188006005      
         C12       C         0.866302226275      0.290009790885      0.901802095943     
         C13       C         0.62702840198       0.207766386544      0.0980328848489    
         C14       C         0.792708593696      0.288463409549      0.0131948912488    
         C15       C         0.700622296703      0.209313549451      0.986637302875     
         H16       H         0.769263803138      0.385561842343      0.244729510775     
         H17       H         0.724067087262      0.112215116657      0.755102683349     
         H18       H         0.873181927188      0.242892624056      0.796444922605     
         H19       H         0.620149439908      0.254884502776      0.203388435398     
         C20       C         0.311396645577      0.866062775613      0.148242267628     
         C21       C         0.186380635412      0.6272684368        0.851591090926     
         C22       C         0.368595035394      0.787841872117      0.902131291562     
         C23       C         0.129181505759      0.705488390081      0.0977036865861    
         C24       C         0.294931915825      0.78623795572       0.0133495287711    
         C25       C         0.202844889018      0.707093089363      0.9864826648       
         H26       H         0.271363321006      0.883227103414      0.24494524729      
         H27       H         0.226413483837      0.610103941668      0.754886946282     
         H28       H         0.375530468673      0.740774132825      0.796733916663     
         H29       H         0.122246812315      0.752557079588      0.203099441892     
         C30       C         0.808532133884      0.626207767825      0.646217230769     
         C31       C         0.684799005455      0.867122956519      0.353615569105     
         C32       C         0.865594340311      0.704548192364      0.400067387615     
         C33       C         0.62773535511       0.788782489231      0.59976530722      
         C34       C         0.791562765396      0.705478322618      0.510386984333     
         C35       C         0.70176835276       0.787853210534      0.489445767919     
         H36       H         0.76839385492       0.608768094813      0.742597661164     
         H37       H         0.724937263236      0.884563438339      0.257235091087     
         H38       H         0.872314129617      0.751440339385      0.294318343256     
         H39       H         0.621017009723      0.741890384959      0.705514456619     
         Fe40      Fe        1.0       0.477095435279      0.749833333333      
         Fe41      Fe        7.47454597877e-19   0.522904564721      0.249833333333     
         N42       N         0.897438288008      0.421631596909      0.120425333333     
         N43       N         0.897438288008      0.578368403091      0.620425333333     
         N44       N         0.102561711992      0.421631596909      0.379241333333     
         N45       N         0.102561711992      0.578368403091      0.879241333333     
         N46       N         0.931035515349      0.371744585153      0.967884333333     
         N47       N         0.931035515349      0.628255414847      0.467884333333     
         N48       N         0.0689644846511     0.371744585153      0.531782333333     
         N49       N         0.0689644846511     0.628255414847      0.0317823333333    
         Fe50      Fe        0.5       0.977095435279      0.750083333333      
         Fe51      Fe        0.5       0.0229045647213     0.250083333333      
         N52       N         0.397438288008      0.921631596909      0.120675333333     
         N53       N         0.397438288008      0.0783684030908     0.620675333333     
         N54       N         0.602561711992      0.921631596909      0.379491333333     
         N55       N         0.602561711992      0.0783684030908     0.879491333333     
         N56       N         0.431035515349      0.871744585153      0.968134333333     
         N57       N         0.431035515349      0.128255414847      0.468134333333     
         N58       N         0.568964484651      0.871744585153      0.532032333333     
         N59       N         0.568964484651      0.128255414847      0.0320323333333