
##########################################################################
#               Crystallographic Information Format file 
#               Produced by PyCifRW module
# 
#  This is a CIF file.  CIF has been adopted by the International
#  Union of Crystallography as the standard for data archiving and 
#  transmission.
#
#  For information on this file format, follow the CIF links at
#  http://www.iucr.org
##########################################################################

data_CP2K

_cell_length_a                          25.8490195173
_cell_length_b                          25.8490195173
_cell_length_c                          6.948
_symmetry_space_group_name_H-M          P1
_symmetry_Int_Tables_number             1
_symmetry_cell_setting                  triclinic
loop_
  _symmetry_equiv_pos_as_xyz
         'x,y,z' 
_cell_angle_alpha                       90.0000
_cell_angle_beta                        90.0000
_cell_angle_gamma                       60.0000
loop_
  _atom_site_label
  _atom_site_type_symbol
  _atom_site_fract_x
  _atom_site_fract_y
  _atom_site_fract_z
  _atom_site_charge
  _atom_site_adp_type
  _atom_site_occupancy
         C0        C         0.0669848147496     0.228584349477      0.436908259086     1.727558 Uiso     1.00     
         C1        C         0.114935336832      0.196447741598      0.293040691884     -0.987069          Uiso     1.00     
         C2        C         0.110278083607      0.215529741387      0.096925016056     0.425146 Uiso     1.00     
         C3        C         0.158451082821      0.182136038029      0.976373456129     -0.191852          Uiso     1.00     
         H4        H         0.156066268055      0.195769931783      0.827056982366     0.155477 Uiso     1.00     
         C5        C         0.214796751314      0.109025235924      0.234341781576     -0.928809          Uiso     1.00     
         C6        C         0.16647250955       0.14451415568       0.355189729413     -0.754156          Uiso     1.00     
         H7        H         0.169025625353      0.130897956243      0.504545845597     -0.991113          Uiso     1.00     
         C8        C         0.257695587765      0.0969301396953     0.894129203911     0.830126 Uiso     1.00     
         C9        C         0.210008296633      0.12805829978       0.0378177759203    -0.274354          Uiso     1.00     
         C10       C         0.0124397773497     0.424226862835      0.880529374616     0.429088 Uiso     1.00     
         C11       C         0.0124365309398     0.462705449613      0.0386321594135    -0.193368          Uiso     1.00     
         C12       C         0.0148036623543     0.447403042837      0.238016449446     0.154420 Uiso     1.00     
         C13       C         0.0152716032632     0.486722476251      0.372795845397     1.728444 Uiso     1.00     
         H14       H         0.0171884688879     0.476058579628      0.524963505531     -0.991016          Uiso     1.00     
         C15       C         0.00743954481365    0.558122834227      0.120238776632     0.423407 Uiso     1.00     
         C16       C         0.0090311435151     0.516847232503      0.98639151471      -0.190899          Uiso     1.00     
         H17       H         0.00728657376628    0.527517807012      0.834332244348     0.157548 Uiso     1.00     
         C18       C         0.0104297053216     0.580363090963      0.478246032251     -0.931403          Uiso     1.00     
         C19       C         0.00961035434608    0.542853245037      0.319883460838     -0.751549          Uiso     1.00     
         C20       C         0.496906111124      0.54200427739       0.250829232561     -0.996448          Uiso     1.00     
         C21       C         0.521040814069      0.512165101976      0.438098194389     0.830837 Uiso     1.00     
         C22       C         0.491673421111      0.536333268801      0.618024426449     -0.274673          Uiso     1.00     
         C23       C         0.51830515129       0.503899962801      0.783555501472     0.428406 Uiso     1.00     
         H24       H         0.496832892298      0.521219932822      0.921797335991     -0.191063          Uiso     1.00     
         C25       C         0.604441094918      0.425715473386      0.600885594029     0.155892 Uiso     1.00     
         C26       C         0.575770418607      0.458182429845      0.434939491105     1.725040 Uiso     1.00     
         H27       H         0.597228984006      0.440695965329      0.296843748687     -0.988795          Uiso     1.00     
         C28       C         0.598251985853      0.420410288021      0.967880664748     0.425248 Uiso     1.00     
         C29       C         0.575098379036      0.450054105077      0.781052975925     -0.190058          Uiso     1.00     
         C30       C         0.0718946820326     0.660259904117      0.424000303576     0.155488 Uiso     1.00     
         C31       C         0.117499787258      0.656044941065      0.28574127025      -0.928866          Uiso     1.00     
         C32       C         0.117540283064      0.641983240842      0.0861356379958    -0.755414          Uiso     1.00     
         C33       C         0.162184949288      0.640032036328      0.970431403562     -0.987683          Uiso     1.00     
         H34       H         0.163108553464      0.62959485384       0.818409174187     0.830907 Uiso     1.00     
         C35       C         0.20938233735       0.661923408061      0.245549081523     -0.269997          Uiso     1.00     
         C36       C         0.162760475673      0.665629286276      0.35841164206      0.423607 Uiso     1.00     
         H37       H         0.161826079966      0.676241134716      0.5102304357       -0.189054          Uiso     1.00     
         C38       C         0.254138090353      0.644103814724      0.906464289614     0.156387 Uiso     1.00     
         C39       C         0.20949841646       0.647643126977      0.0458197259113    -0.929358          Uiso     1.00     
         C40       C         0.906666214072      0.747183470065      0.556182598818     -0.753476          Uiso     1.00     
         C41       C         0.860875945233      0.781689522729      0.704020295304     0.831308 Uiso     1.00     
         C42       C         0.866529288386      0.763421074143      0.901350502447     -0.272767          Uiso     1.00     
         C43       C         0.821012425459      0.799849555054      0.0267636395049    1.724281 Uiso     1.00     
         H44       H         0.824317401374      0.787035733028      0.177293603989     -0.929025          Uiso     1.00     
         C45       C         0.762216363622      0.870475169147      0.76591142305      -0.756195          Uiso     1.00     
         C46       C         0.809609163815      0.834091602484      0.643120680975     -0.992894          Uiso     1.00     
         H47       H         0.80629041614       0.847079507377      0.492814951151     0.832745 Uiso     1.00     
         C48       C         0.722977509208      0.886377539122      0.11215583702      -0.273079          Uiso     1.00     
         C49       C         0.767826884993      0.852038902814      0.96335277835      0.429937 Uiso     1.00     
         C50       C         0.4326351154        0.966820550739      0.534935811177     -0.192871          Uiso     1.00     
         C51       C         0.472699411171      0.966893511077      0.687350973517     0.156332 Uiso     1.00     
         C52       C         0.46177258115       0.964695729623      0.888645665264     1.719248 Uiso     1.00     
         C53       C         0.502913361963      0.96427844287       0.017603168283     -0.930558          Uiso     1.00     
         H54       H         0.495698938547      0.962489432823      0.171074900121     -0.749552          Uiso     1.00     
         C55       C         0.563936589959      0.971831498701      0.755410592284     0.826993 Uiso     1.00     
         C56       C         0.522906831569      0.970191163328      0.627535030403     -0.273818          Uiso     1.00     
         H57       H         0.530301156954      0.971807839545      0.474159552136     1.726974 Uiso     1.00     
         C58       C         0.592769156529      0.969081607783      0.109735354747     -0.937603          Uiso     1.00     
         C59       C         0.552849061918      0.969830320546      0.956973365501     -0.749398          Uiso     1.00     
         C60       C         0.304620323323      0.907036817056      0.556952299068     -0.987764          Uiso     1.00     
         C61       C         0.315589282106      0.86132112251       0.704723777316     0.830304 Uiso     1.00     
         C62       C         0.327465521776      0.867223312463      0.902629776025     -0.275679          Uiso     1.00     
         C63       C         0.336320068596      0.821751256079      0.0278900990166    0.425310 Uiso     1.00     
         H64       H         0.345270461067      0.825243073231      0.178842988803     -0.190597          Uiso     1.00     
         C65       C         0.325704291885      0.762525876773      0.765889452109     0.156820 Uiso     1.00     
         C66       C         0.314915548593      0.809871387851      0.643193065616     1.725672 Uiso     1.00     
         H67       H         0.305804539714      0.806365185319      0.492457577702     -0.936460          Uiso     1.00     
         C68       C         0.347979989861      0.723610828647      0.112630285506     -0.751838          Uiso     1.00     
         C69       C         0.337790469854      0.768386261907      0.963914851209     0.833377 Uiso     1.00     
         C70       C         0.68422666762       0.0670709030948     0.434613380699     -0.274176          Uiso     1.00     
         C71       C         0.666585502172      0.115755061026      0.292267465252     1.724126 Uiso     1.00     
         C72       C         0.650505073804      0.11175167781       0.0976409604547    -0.932726          Uiso     1.00     
         C73       C         0.634104185296      0.160569776929      0.978500302871     -0.751736          Uiso     1.00     
         H74       H         0.621581682608      0.158686637441      0.830341679329     -0.990053          Uiso     1.00     
         C75       C         0.652428399175      0.216340928294      0.234648327198     0.830682 Uiso     1.00     
         C76       C         0.666903208503      0.167344391134      0.354273488932     -0.274620          Uiso     1.00     
         H77       H         0.679239225452      0.16939432218       0.502489475064     0.427215 Uiso     1.00     
         C78       C         0.618148434792      0.260618571013      0.897501918699     -0.194053          Uiso     1.00     
         C79       C         0.636524762371      0.212209641708      0.039596447125     0.154845 Uiso     1.00     
         C80       C         0.441086169294      0.53036684714       0.128219101527     1.724807 Uiso     1.00     
         C81       C         0.464863979658      0.511017815254      0.931119151789     -0.934806          Uiso     1.00     
         C82       C         0.43286919826       0.542063408481      0.761382209587     -0.754464          Uiso     1.00     
         C83       C         0.460103752376      0.520029325413      0.584912689428     0.834062 Uiso     1.00     
         H84       H         0.436803084571      0.542866805902      0.454035910145     -0.273221          Uiso     1.00     
         C85       C         0.548555240614      0.435020989037      0.737291737105     1.725314 Uiso     1.00     
         C86       C         0.521105707402      0.459176050939      0.914192976142     1.724987 Uiso     1.00     
         H87       H         0.544556574084      0.436371789387      0.0448633782519    -0.933719          Uiso     1.00     
         C88       C         0.539908133436      0.447677346172      0.370791635735     -0.752423          Uiso     1.00     
         C89       C         0.516393830884      0.466027458133      0.567377914638     -0.992075          Uiso     1.00     
         Mg90      Mg        0.0480900155291     0.31369910846       0.534446209866     0.832966 Uiso     1.00     
         Mg91      Mg        0.97978194505       0.305336507865      0.200546209866     -0.273920          Uiso     1.00     
         Mg92      Mg        0.971804064579      0.379800100331      0.866576209866     0.428383 Uiso     1.00     
         O93       O         0.0609680154771     0.252639975058      0.332216209866     -0.191518          Uiso     1.00     
         O94       O         0.0373279762644     0.299353097511      0.975116209866     0.155769 Uiso     1.00     
         O95       O         0.105858779447      0.259656055219      0.740306209866     -0.934380          Uiso     1.00     
         O96       O         0.0194081178462     0.394591576687      0.666086209866     -0.749602          Uiso     1.00     
         O97       O         0.996507146241      0.36917980006       0.309836209866     0.831543 Uiso     1.00     
         O98       O         0.964646245426      0.439300104808      0.0805762098662    -0.274150          Uiso     1.00     
         Mg99      Mg        0.385975526744      0.650875924709      0.869066209866     1.727556 Uiso     1.00     
         C100      C         0.354722078757      0.823362155144      0.0258562098662    1.729587 Uiso     1.00     
         Mg101     Mg        0.708817487025      0.990037086861      0.199766209866     -0.932481          Uiso     1.00     
         Mg102     Mg        0.0181628395493     0.69669846035       0.79725149711      -0.752537          Uiso     1.00     
         Mg103     Mg        0.0274467435999     0.618914125759      0.13239149711      -0.992168          Uiso     1.00     
         Mg104     Mg        0.950897563091      0.686138905362      0.46605149711      0.833093 Uiso     1.00     
         O105      O         0.00309800942146    0.630982188603      0.69060149711      -0.273898          Uiso     1.00     
         O106      O         0.977716605436      0.605681778328      0.33423149711      0.426485 Uiso     1.00     
         O107      O         0.0352221397949     0.560740393289      0.91926149711      -0.192231          Uiso     1.00     
         O108      O         0.0321747514424     0.669940163289      0.35739149711      0.154318 Uiso     1.00     
         O109      O         0.0803052638267     0.647393539166 
          0.000601497109971   -0.931418           Uiso      1.00      
         O110      O         0.0704949006588     0.702013672593      0.58611149711      -0.755314          Uiso     1.00     
         O111      O         0.936875526984      0.749141887812      0.66738149711      0.832456 Uiso     1.00     
         O112      O         0.961841838204      0.69880429682       0.02340149711      -0.275774          Uiso     1.00     
         O113      O         0.893483146656      0.738035625278      0.25704149711      1.728529 Uiso     1.00     
         Mg114     Mg        0.351047333152      0.0286110281864     0.130234324056     1.720563 Uiso     1.00     
         O115      O         0.0761648043873     0.643253078484 
          0.000664324056134   -0.930018           Uiso      1.00      
         Mg116     Mg        0.361778999775      0.951940357112      0.465844324056     -0.756118          Uiso     1.00     
         O117      O         0.365717318942      0.00350297797328 
          0.691774324056      -0.990444           Uiso      1.00      
         O118      O         0.413544104912      0.980804490644      0.333904324056     0.831959 Uiso     1.00     
         O119      O         0.406477403683      0.0320633850907     0.925234324056     -0.272772          Uiso     1.00     
         O120      O         0.295202169855      0.0318912734562     0.357274324056     0.426096 Uiso     1.00     
         O121      O         0.269496791028      0.0800825311232 
          0.000814324056134   -0.188862           Uiso      1.00      
         O122      O         0.227167453149      0.0709606144934     0.592654324056     0.157126 Uiso     1.00     
         O123      O         0.313931965377      0.937644967233      0.668644324056     1.728357 Uiso     1.00     
         O124      O         0.336579831638      0.962105067763      0.0241243240561    -0.989435          Uiso     1.00     
         O125      O         0.368501477735      0.893554016153      0.258004324056     0.428641 Uiso     1.00     
         Mg126     Mg        0.636833984177      0.048788586281      0.533428192265     -0.192278          Uiso     1.00     
         Mg127     Mg        0.6458040376        0.972654498538      0.867058192265     0.154915 Uiso     1.00     
         Mg128     Mg        0.712957947706      0.98175616674       0.199558192265     -0.927886          Uiso     1.00     
         O129      O         0.583185775274      0.0222833945641     0.664978192265     -0.754861          Uiso     1.00     
         O130      O         0.632460323817      0.996740003158      0.308638192265     -0.991843          Uiso     1.00     
         O131      O         0.592824026808      0.967926490696      0.0736481922649    0.830551 Uiso     1.00     
         O132      O         0.701689697752      0.968128974971      0.642688192265     -0.272715          Uiso     1.00     
         O133      O         0.727202716517      0.919927593091      0.998638192265     0.426151 Uiso     1.00     
         O134      O         0.769785159741      0.929009012865      0.407608192265     -0.191573          Uiso     1.00     
         O135      O         0.685784557879      0.0615754683049     0.331408192265     0.156667 Uiso     1.00     
         O136      O         0.660322160183      0.0382695281474     0.975778192265     1.726727 Uiso     1.00     
         O137      O         0.634434545507      0.105960021585      0.739588192265     -0.992889          Uiso     1.00     
         Mg138     Mg        0.31508612575       0.636671996756      0.533710832314     0.427861 Uiso     1.00     
         C139      C         0.422696394183      0.591831853856      0.246460832314     -0.191150          Uiso     1.00     
         Mg140     Mg        0.305397253147      0.713271798334      0.201430832314     0.155190 Uiso     1.00     
         O141      O         0.252285627576      0.685683315741      0.331720832314     -0.932364          Uiso     1.00     
         O142      O         0.301489306622      0.660393029679      0.975910832314     -0.754534          Uiso     1.00     
         O143      O         0.262399717157      0.63142765401       0.740410832314     -0.983454          Uiso     1.00     
         O144      O         0.330029465312      0.7021655358        0.642430832314     0.834123 Uiso     1.00     
         O145      O         0.352596337862      0.727698802993      0.999340832314     -0.273043          Uiso     1.00     
         O146      O         0.298290055063      0.772225095266      0.412150832314     0.423990 Uiso     1.00     
         O147      O         0.370809798481      0.63244007539       0.308830832314     -0.188369          Uiso     1.00     
         O148      O         0.396019090832      0.584582916778      0.665920832314     0.156214 Uiso     1.00     
         O149      O         0.439320353236      0.592682287814      0.0742908323138    1.728948 Uiso     1.00     
         Mg150     Mg        0.618164933938      0.352515344152      0.133626235156     -0.993122          Uiso     1.00     
         Mg151     Mg        0.69565566633       0.285361434046      0.800076235156     0.426299 Uiso     1.00     
         Mg152     Mg        0.686311016996      0.361495521789      0.465636235156     -0.190356          Uiso     1.00     
         O153      O         0.670355256054      0.296538566076      0.358746235156     0.156454 Uiso     1.00     
         O154      O         0.644305653958      0.272625173091 
          0.00174623515634    -0.934668           Uiso      1.00      
         O155      O         0.698784048392      0.227663539625      0.592596235156     -0.751402          Uiso     1.00     
         O156      O         0.747734622094      0.313739605315      0.669486235156     -0.990287          Uiso     1.00     
         O157      O         0.699148520089      0.336640576921      0.0261962351563    0.830026 Uiso     1.00     
         O158      O         0.739857983761      0.365423716742      0.258876235156     -0.271723          Uiso     1.00     
         O159      O         0.631184672879      0.36547433781       0.691326235156     0.427864 Uiso     1.00     
         O160      O         0.605681778328      0.413797210257      0.335376235156     -0.192200          Uiso     1.00     
         O161      O         0.563291695166      0.404452560924      0.926736235156     0.155942 Uiso     1.00