
##########################################################################
#               Crystallographic Information Format file 
#               Produced by PyCifRW module
# 
#  This is a CIF file.  CIF has been adopted by the International
#  Union of Crystallography as the standard for data archiving and 
#  transmission.
#
#  For information on this file format, follow the CIF links at
#  http://www.iucr.org
##########################################################################

data_ZEOPP

_cell_length_a                          33.4160316467
_cell_length_b                          29.6935590101
_cell_length_c                          6.9533
_cell_angle_alpha                       90
_cell_angle_beta                        97.343
_cell_angle_gamma                       90
_symmetry_space_group_name_H-M          P1
_symmetry_Int_Tables_number             1
_symmetry_cell_setting                  Monoclinic
loop_
  _symmetry_equiv_pos_as_xyz
         '+x,+y,+z' 
loop_
  _atom_site_label
  _atom_site_type_symbol
  _atom_site_fract_x
  _atom_site_fract_y
  _atom_site_fract_z
         C0        C         0.461628  0.02865   0.383476  
         C1        C         0.489989  0.001721  0.507962  
         C2        C         0.490206  0.005462  0.711874  
         C3        C         0.464006  0.034681  0.797696  
         C4        C         0.436711  0.060889  0.671982  
         C5        C         0.435609  0.057924  0.470057  
         C6        C         0.519386  0.969802  0.434454  
         O7        O         0.527689  0.975306  0.263864  
         O8        O         0.534186  0.939588  0.550218  
         H9        H         0.511445  0.985022  0.805726  
         H10       H         0.416087  0.083961  0.730131  
         H11       H         0.413923  0.078624  0.379941  
         C12       C         0.457904  0.02689   0.171921  
         C13       C         0.477007  0.060882  0.071332  
         C14       C         0.472972  0.056336  0.871188  
         C15       C         0.452472  0.023178  0.765585  
         C16       C         0.487181  0.081415  0.732399  
         C17       C         0.432899  0.989541  0.857216  
         C18       C         0.435876  0.99178   0.062378  
         Cl19      Cl        0.411544  0.950076  0.17776   
         H20       H         0.494167  0.088145  0.146437  
         H21       H         0.505441  0.111568  0.750618  
         H22       H         0.416297  0.962793  0.77579   
         C23       C         0.467355  0.043465  0.424649  
         C24       C         0.430731  0.035817  0.303005  
         C25       C         0.429659  0.033107  0.100353  
         C26       C         0.465157  0.037647  0.008716  
         C27       C         0.501839  0.045029  0.13283   
         C28       C         0.502937  0.047791  0.335465  
         F29       F         0.538695  0.05414   0.444576  
         F30       F         0.536667  0.049812  0.057313  
         F31       F         0.393889  0.025502  0.993272  
         F32       F         0.396075  0.031133  0.380182  
         C33       C         0.468423  0.046477  0.634344  
         C34       C         0.458075  0.0151    0.762246  
         C35       C         0.479679  0.080058  0.763537  
         C36       C         0.493186  0.126171  0.722927  
         O37       O         0.504525  0.151282  0.866212  
         O38       O         0.492597  0.139254  0.549956  
         H39       H         0.446753  0.981476  0.729191  
         C40       C         0.952736  0.463889  0.877764  
         C41       C         0.921676  0.440966  0.965752  
         C42       C         0.924836  0.439693  0.171472  
         C43       C         0.957265  0.459663  0.293306  
         C44       C         0.987407  0.481644  0.202871  
         C45       C         0.985161  0.48365   0.000243  
         C46       C         0.886035  0.41832   0.852297  
         O47       O         0.888464  0.407888  0.678099  
         O48       O         0.855918  0.410849  0.940472  
         H49       H         0.901341  0.422604  0.237848  
         H50       H         0.012996  0.497343  0.289404  
         H51       H         0.009005  0.501146  0.938092  
         C52       C         0.952256  0.468371  0.668202  
         C53       C         0.976201  0.438442  0.570587  
         C54       C         0.97341   0.444031  0.371206  
         C55       C         0.950571  0.475227  0.264168  
         C56       C         0.991046  0.421827  0.234523  
         C57       C         0.927061  0.505561  0.353381  
         C58       C         0.928161  0.501747  0.557389  
         Cl59      Cl        0.899031  0.539426  0.669825  
         H60       H         0.994896  0.412466  0.646634  
         H61       H         0.011921  0.393868  0.254348  
         H62       H         0.908655  0.530796  0.270846  
         C63       C         0.963894  0.453631  0.922273  
         C64       C         0.967491  0.495024  0.825334  
         C65       C         0.965457  0.496926  0.622091  
         C66       C         0.959497  0.457605  0.50499   
         C67       C         0.955656  0.416225  0.604214  
         C68       C         0.957727  0.414279  0.807446  
         F69       F         0.953254  0.374176  0.891846  
         F70       F         0.950092  0.377554  0.503887  
         F71       F         0.968854  0.537391  0.539067  
         F72       F         0.973092  0.533482  0.927238  
         C73       C         0.966189  0.451649  0.132721  
         C74       C         0.942061  0.471464  0.252159  
         C75       C         0.991962  0.430248  0.270832  
         C76       C         0.027895  0.402949  0.243996  
         O77       O         0.046356  0.383812  0.391655  
         O78       O         0.039319  0.399944  0.078403  
         H79       H         0.916269  0.492949  0.210217  
         C80       C         0.452736  0.963889  0.878014  
         C81       C         0.421676  0.940966  0.966002  
         C82       C         0.424836  0.939693  0.171722  
         C83       C         0.457265  0.959663  0.293556  
         C84       C         0.487407  0.981644  0.203121  
         C85       C         0.485161  0.98365   0.000493  
         C86       C         0.386035  0.91832   0.852547  
         O87       O         0.388464  0.907888  0.678349  
         O88       O         0.355918  0.910849  0.940722  
         H89       H         0.401341  0.922604  0.238098  
         H90       H         0.512996  0.997343  0.289654  
         H91       H         0.509005  0.001146  0.938342  
         C92       C         0.452256  0.968371  0.668452  
         C93       C         0.476201  0.938442  0.570837  
         C94       C         0.47341   0.944031  0.371456  
         C95       C         0.450571  0.975227  0.264418  
         C96       C         0.491046  0.921827  0.234773  
         C97       C         0.427061  0.005561  0.353631  
         C98       C         0.428161  0.001747  0.557639  
         Cl99      Cl        0.399031  0.039426  0.670075  
         H100      H         0.494896  0.912466  0.646884  
         H101      H         0.511921  0.893868  0.254598  
         H102      H         0.408655  0.030796  0.271096  
         C103      C         0.463894  0.953631  0.922523  
         C104      C         0.467491  0.995024  0.825584  
         C105      C         0.465457  0.996926  0.622341  
         C106      C         0.459497  0.957605  0.50524   
         C107      C         0.455656  0.916225  0.604464  
         C108      C         0.457727  0.914279  0.807696  
         F109      F         0.453254  0.874176  0.892096  
         F110      F         0.450092  0.877554  0.504137  
         F111      F         0.468854  0.037391  0.539317  
         F112      F         0.473092  0.033482  0.927488  
         C113      C         0.466189  0.951649  0.132971  
         C114      C         0.442061  0.971464  0.252409  
         C115      C         0.491962  0.930248  0.271082  
         C116      C         0.527895  0.902949  0.244246  
         O117      O         0.546356  0.883812  0.391905  
         O118      O         0.539319  0.899944  0.078653  
         H119      H         0.416269  0.992949  0.210467  
         C120      C         0.961628  0.52865   0.383226  
         C121      C         0.989989  0.501721  0.507712  
         C122      C         0.990206  0.505462  0.711624  
         C123      C         0.964006  0.534681  0.797446  
         C124      C         0.936711  0.560889  0.671732  
         C125      C         0.935609  0.557924  0.469807  
         C126      C         0.019386  0.469802  0.434204  
         O127      O         0.027689  0.475306  0.263614  
         O128      O         0.034186  0.439588  0.549968  
         H129      H         0.011445  0.485022  0.805476  
         H130      H         0.916087  0.583961  0.729881  
         H131      H         0.913923  0.578624  0.379691  
         C132      C         0.957904  0.52689   0.171671  
         C133      C         0.977007  0.560882  0.071082  
         C134      C         0.972972  0.556336  0.870938  
         C135      C         0.952472  0.523178  0.765335  
         C136      C         0.987181  0.581415  0.732149  
         C137      C         0.932899  0.489541  0.856966  
         C138      C         0.935876  0.49178   0.062128  
         Cl139     Cl        0.911544  0.450076  0.17751   
         H140      H         0.994167  0.588145  0.146187  
         H141      H         0.005441  0.611568  0.750368  
         H142      H         0.916297  0.462793  0.77554   
         C143      C         0.967355  0.543465  0.424399  
         C144      C         0.930731  0.535817  0.302755  
         C145      C         0.929659  0.533107  0.100103  
         C146      C         0.965157  0.537647  0.008466  
         C147      C         0.001839  0.545029  0.13258   
         C148      C         0.002937  0.547791  0.335215  
         F149      F         0.038695  0.55414   0.444326  
         F150      F         0.036667  0.549812  0.057063  
         F151      F         0.893889  0.525502  0.993022  
         F152      F         0.896075  0.531133  0.379932  
         C153      C         0.968423  0.546477  0.634094  
         C154      C         0.958075  0.5151    0.761996  
         C155      C         0.979679  0.580058  0.763287  
         C156      C         0.993186  0.626171  0.722677  
         O157      O         0.004525  0.651282  0.865962  
         O158      O         0.992597  0.639254  0.549706  
         H159      H         0.946753  0.481476  0.728941  
         Fe160     Fe        0.0       0.490471  0.75      
         Fe161     Fe        1.0       0.509529  0.25      
         N162      N         0.957332  0.467397  0.120592  
         N163      N         0.957332  0.532603  0.620592  
         N164      N         0.042668  0.467397  0.379408  
         N165      N         0.042668  0.532603  0.879408  
         N166      N         0.971309  0.446642  0.968051  
         N167      N         0.971309  0.553358  0.468051  
         N168      N         0.028691  0.446642  0.531949  
         N169      N         0.028691  0.553358  0.031949  
         Fe170     Fe        0.5       0.990471  0.75      
         Fe171     Fe        0.5       0.009529  0.25      
         N172      N         0.457332  0.967397  0.120592  
         N173      N         0.457332  0.032603  0.620592  
         N174      N         0.542668  0.967397  0.379408  
         N175      N         0.542668  0.032603  0.879408  
         N176      N         0.471309  0.946642  0.968051  
         N177      N         0.471309  0.053358  0.468051  
         N178      N         0.528691  0.946642  0.531949  
         N179      N         0.528691  0.053358  0.031949 