
##########################################################################
#               Crystallographic Information Format file 
#               Produced by PyCifRW module
# 
#  This is a CIF file.  CIF has been adopted by the International
#  Union of Crystallography as the standard for data archiving and 
#  transmission.
#
#  For information on this file format, follow the CIF links at
#  http://www.iucr.org
##########################################################################

data_ZEOPP

_cell_length_a                          33.6407851544
_cell_length_b                          29.8932754699
_cell_length_c                          6.9533
_cell_angle_alpha                       90
_cell_angle_beta                        97.343
_cell_angle_gamma                       90
_symmetry_space_group_name_H-M          P1
_symmetry_Int_Tables_number             1
_symmetry_cell_setting                  Monoclinic
loop_
  _symmetry_equiv_pos_as_xyz
         '+x,+y,+z' 
loop_
  _atom_site_label
  _atom_site_type_symbol
  _atom_site_fract_x
  _atom_site_fract_y
  _atom_site_fract_z
         C0        C         0.424251070371      0.0544990955307     0.66212015726      
         C1        C         0.0757489296294     0.445500904469      0.338567275462     
         C2        C         0.446254823586      0.0883066067998     0.415184929036     
         C3        C         0.053744583765      0.411693406526      0.585502564893     
         C4        C         0.417286887178      0.0890127204735     0.534839008207     
         C5        C         0.0827134091461     0.410987272864      0.465848393913     
         N6        N         0.457523625672      0.0324624917143     0.621132116069     
         N7        N         0.0424763743279     0.467537508286      0.379555316654     
         N8        N         0.471122605948      0.0533565991026     0.468517464698     
         N9        N         0.0288773940524     0.446643400897      0.532169968025     
         H10       H         0.408619069919      0.0470845755459     0.762107609643     
         H11       H         0.0913812264058     0.452915417791      0.238579792477     
         H12       H         0.448691777336      0.10865514731       0.312396663721     
         H13       H         0.0513084813134     0.39134518696       0.688289316668     
         C14       C         0.134414930898      0.362853767645      0.642134709741     
         H15       H         0.124930275241      0.372184329224      0.758695408778     
         C16       C         0.117048997075      0.379818829447      0.464975217762     
         C17       C         0.130926620689      0.366162618878      0.29443841073      
         H18       H         0.119055265013      0.377758506694      0.173341369925     
         H19       H         0.17164935178       0.326210852785      0.184515503394     
         C20       C         0.162164251636      0.335541479764      0.301061707732     
         C21       C         0.179530629946      0.318576352562      0.47823569441      
         C22       C         0.165655969577      0.332232496502      0.648772195414     
         H23       H         0.177523917521      0.320636740715      0.769855047548     
         C24       C         0.218842786013      0.277706854295      0.47746032999      
         C25       C         0.232628550969      0.268839763696      0.323927410395     
         H26       H         0.220849053951      0.275646531542      0.185826482153     
         C27       C         0.236208283392      0.260741484383      0.654615476423     
         H28       H         0.226723627735      0.270072045962      0.771176175461     
         C29       C         0.267449322071      0.23012021324       0.661252962097     
         H30       H         0.279317270014      0.218524457453      0.78233581423      
         C31       C         0.281324418884      0.21646437741       0.490720806638     
         C32       C         0.263958040573      0.233429504612      0.31354681996      
         H33       H         0.273442704274      0.224098569523      0.196996270076     
         H34       H         0.328974629374      0.175663808271      0.80814011617      
         C35       C         0.338458539984      0.166331568555      0.691585168127     
         C36       C         0.32109379019       0.183297311609      0.514415432323     
         C37       C         0.334969373401      0.169642819645      0.343878978203     
         H38       H         0.323099619147      0.181237985741      0.222786077317     
         H39       H         0.375693705913      0.129690331832      0.233960210786     
         C40       C         0.366208605769      0.13902095881       0.350506415124     
         C41       C         0.383574984079      0.122055831609      0.527680401802     
         C42       C         0.369698872989      0.135711333537      0.698218449812     
         H43       H         0.381568271654      0.124116219762      0.819299754939     
         C44       C         0.924025124348      0.445771467025      0.160623545363     
         C45       C         0.575974875652      0.0542285329746     0.84006388736      
         C46       C         0.946019369904      0.411955100184      0.913685195013     
         C47       C         0.553980353896      0.0880445133991 
          0.0870040052205     
         C48       C         0.916915292581      0.411420105523      0.0326062049374    
         C49       C         0.583084845519      0.0885800876854     0.96808034403      
         N50       N         0.957523221364      0.467537392744      0.12082024895      
         N51       N         0.542476778636      0.0324626072564     0.879867183773     
         N52       N         0.971116463829      0.446637649287      0.9682044133       
         N53       N         0.528883536171      0.0533623507132 
          0.0324830194228     
         H54       H         0.908345565022      0.453250508966      0.260344000639     
         H55       H         0.591654573078      0.0467496842429     0.740342548328     
         H56       H         0.948400051044      0.391664878349      0.810622483807     
         H57       H         0.551600052415      0.108334970241      0.190062660274     
         C58       C         0.611577880819      0.164089719566      0.0191588030726    
         H59       H         0.586172612281      0.173540505393      0.0498894053253    
         C60       C         0.617262967271      0.119932494411      0.966313745561     
         C61       C         0.654436113508      0.106107270459      0.921366128977     
         H62       H         0.658322081814      0.0759232372664     0.885248527601     
         H63       H         0.711324980102      0.126987216402      0.898553575781     
         C64       C         0.685921411302      0.136435407489      0.929281245014     
         C65       C         0.680234625112      0.180595227384      0.982129235544     
         C66       C         0.643062859871      0.194422383423      0.0270680145739    
         H67       H         0.639177210307      0.224601889788      0.0631915204855    
         C68       C         0.722497002452      0.217984199779      0.997203177664     
         C69       C         0.754440451349      0.205429170801      0.941563223669     
         H70       H         0.763556116996      0.173974942635      0.916137959704     
         C71       C         0.716812492438      0.262140538448      0.0500493506093    
         H72       H         0.691407223899      0.271591324274      0.080779952862     
         C73       C         0.748297471489      0.292473202305      0.0579585621107    
         H74       H         0.744411821925      0.32265270867       0.0940820680222    
         C75       C         0.785468660294      0.278646932753      0.0130186676475    
         C76       C         0.791155446483      0.234487112857      0.960170677117     
         H77       H         0.81655959172       0.225038035284      0.929444123317     
         H78       H         0.788877634553      0.371634305476      0.0918327199852    
         C79       C         0.814282831971      0.36218440364       0.0611115001271    
         C80       C         0.819969389508      0.318026157922 
          0.00825774755657    
         C81       C         0.857140545974      0.304199155788      0.96331075934      
         H82       H         0.861027104086      0.27401703735       0.927191842261     
         H83       H         0.914030002374      0.325081016486      0.94049689044      
         C84       C         0.888626433574      0.334529207572      0.971224559674     
         C85       C         0.882939647384      0.378689027467      0.0240725502043    
         C86       C         0.845767430901      0.392515647225      0.0690182644814    
         H87       H         0.841882232579      0.422695689871      0.105134835145     
         C88       C         0.424023355305      0.945769486181      0.160892417324     
         C89       C         0.0759766446947     0.554230513819      0.839795015399     
         C90       C         0.446026884858      0.911962238714      0.913955983208     
         C91       C         0.0539728388733     0.588037374801      0.0867332165049    
         C92       C         0.416917918187      0.911422465152      0.032849688944     
         C93       C         0.083082219947      0.58857772809       0.967836860283     
         N94       N         0.457523625672      0.967537508286      0.121132116069     
         N95       N         0.0424763743279     0.532462491714      0.879555316654     
         N96       N         0.471122605948      0.946643400897      0.968517464698     
         N97       N         0.0288773940524     0.553356599103      0.0321699680248    
         H98       H         0.40833989323       0.953244703296      0.260602411161     
         H99       H         0.0916602449047     0.546755489946      0.740084138066     
         H100      H         0.448411287142      0.891675680763      0.810884383397     
         H101      H         0.0515888164002     0.60832416791       0.189800760724     
         C102      C         0.11157410409       0.664086164296      0.0189869714775    
         H103      H         0.0861671830304     0.673535340854      0.0497017863519    
         C104      C         0.117261177333      0.619930911587      0.966119200817     
         C105      C         0.154436740923      0.606108041709      0.921194686124     
         H106      H         0.158324067133      0.575925356618      0.885061558777     
         H107      H         0.211327689766      0.626989977734      0.898443730339     
         C108      C         0.185922468585      0.63643655969       0.929155611997     
         C109      C         0.180233695464      0.680594407002      0.982026315874     
         C110      C         0.143059513216      0.694419209304      0.0269419956143    
         H111      H         0.139172505542      0.724597367368      0.0630810246975    
         C112      C         0.222496488972      0.71798373476       0.997159496725     
         C113      C         0.254442622393      0.70543132533       0.941539333147     
         H114      H         0.263559378772      0.673978179791      0.916101854685     
         C115      C         0.216809992139      0.762138100955      0.0500283827018    
         H116      H         0.191403071079      0.771587277513      0.0807431975763    
         C117      C         0.248295401265      0.792471145964      0.0579834068386    
         H118      H         0.244408393591      0.822649304027      0.0941224359218    
         C119      C         0.285469007103      0.778647230175      0.0130666117822    
         C120      C         0.291157780224      0.734489382863      0.960195907905     
         H121      H         0.316563577814      0.725041914393      0.929485141563     
         H122      H         0.288875296418      0.871631909603      0.0919420686607    
         C123      C         0.314282146022      0.862183616705      0.0612366364873    
         C124      C         0.319970690692      0.818027343768 
          0.00836017152741    
         C125      C         0.357144264444      0.804202695646      0.963436282373     
         H126      H         0.361032180521      0.774021925367      0.927301841085     
         H127      H         0.414035803153      0.825086546483      0.940684012648     
         C128      C         0.388630581973      0.834533128439      0.971395894305     
         C129      C         0.382941808851      0.87869097575       0.0242665981826    
         C130      C         0.345767175104      0.89251524152       0.0691892122923    
         H131      H         0.34188061893       0.922693936117      0.105321307006     
         C132      C         0.924252878389      0.554497076405      0.661851296199     
         C133      C         0.575747121611      0.945502923595      0.338836136524     
         C134      C         0.946247347646      0.588313707011      0.414914151751     
         C135      C         0.55375205972       0.9116863063        0.585773342683     
         C136      C         0.917284324724      0.589015018075      0.534595541861     
         C137      C         0.582715971593      0.91098497527       0.466091860007     
         N138      N         0.957523221364      0.532462607256      0.62082024895      
         N139      N         0.542476778636      0.967537392744      0.379867183773     
         N140      N         0.971116463829      0.553362350713      0.4682044133       
         N141      N         0.528883536171      0.946637649287      0.532483019423     
         H142      H         0.908624789494      0.547078722944      0.761849212484     
         H143      H         0.591375506823      0.952921270401      0.238838189383     
         H144      H         0.948680589246      0.608665902571      0.312134777556     
         H145      H         0.551319669346      0.891334431756      0.688551202801     
         C146      C         0.634422617017      0.862846372565      0.642307634581     
         H147      H         0.624942339103      0.872172648157      0.758884883095     
         C148      C         0.617050750697      0.879817282293      0.465169752351     
         C149      C         0.63092196933       0.866167342455      0.294608728303     
         H150      H         0.619046558527      0.877767227591      0.173526459201     
         H151      H         0.671639850853      0.826220284509      0.184623449685     
         C152      C         0.662159127945      0.835546626         0.301186203594     
         C153      C         0.679531439259      0.818575650373      0.478338580429     
         C154      C         0.665663183795      0.832225523656      0.648899295923     
         H155      H         0.677535186434      0.820625770974      0.769967378975     
         C156      C         0.718842674133      0.777707003506      0.47750383605      
         C157      C         0.732622646274      0.768845585426      0.323950256816     
         H158      H         0.720838481964      0.775656948803      0.1858605429       
         C159      C         0.736214103863      0.760735785811      0.654637372804     
         H160      H         0.726733825949      0.770062061402      0.771214621317     
         C161      C         0.767454670642      0.730114936901      0.661229034145     
         H162      H         0.779326673281      0.71851518422       0.782297117197     
         C163      C         0.781323362696      0.716465371585      0.490672664128     
         C164      C         0.763951051381      0.733436347212      0.313520287293     
         H165      H         0.7734313377        0.724109697755      0.196953187908     
         H166      H         0.828983830828      0.675654671231      0.808032686795     
         C167      C         0.838463363916      0.666326717286      0.691461188938     
         C168      C         0.821092681234      0.68329830865       0.514313062107     
         C169      C         0.834961859522      0.669650087361      0.3437523938       
         H170      H         0.823088050253      0.681249250665      0.222674262901     
         H171      H         0.875681342579      0.629702307584      0.233771253385     
         C172      C         0.866200619671      0.639028649074      0.350334007294     
         C173      C         0.883572930985      0.622057673447      0.527486384129     
         C174      C         0.869703224886      0.635706904634      0.69804864746      
         H175      H         0.88157667816       0.624107794049      0.819115182675     
         Fe176     Fe        1.0       0.490534780965      0.750187132158      
         Fe177     Fe        1.0       0.509465219035      0.250187132158      
         N178      N         0.95761678598       0.467614573352      0.120779132158     
         N179      N         0.95761678598       0.532385426648      0.620779132158     
         N180      N         0.04238321402       0.467614573352      0.379595132158     
         N181      N         0.04238321402       0.532385426648      0.879595132158     
         N182      N         0.971500704737      0.446998966855      0.968238132158     
         N183      N         0.971500704737      0.553001033145      0.468238132158     
         N184      N         0.0284992952632     0.446998966855      0.532136132158     
         N185      N         0.0284992952632     0.553001033145      0.032136132158     
         Fe186     Fe        0.5       0.990534780965      0.750500300565      
         Fe187     Fe        0.5       0.00946521903513    0.250500300565      
         N188      N         0.45761678598       0.967614573352      0.121092300565     
         N189      N         0.45761678598       0.032385426648      0.621092300565     
         N190      N         0.54238321402       0.967614573352      0.379908300565     
         N191      N         0.54238321402       0.032385426648      0.879908300565     
         N192      N         0.471500704737      0.946998966855      0.968551300565     
         N193      N         0.471500704737      0.0530010331452     0.468551300565     
         N194      N         0.528499295263      0.946998966855      0.532449300565     
         N195      N         0.528499295263      0.0530010331452 
          0.0324493005647 