
##########################################################################
#               Crystallographic Information Format file 
#               Produced by PyCifRW module
# 
#  This is a CIF file.  CIF has been adopted by the International
#  Union of Crystallography as the standard for data archiving and 
#  transmission.
#
#  For information on this file format, follow the CIF links at
#  http://www.iucr.org
##########################################################################

data_ZEOPP

_cell_length_a                          5.21164446373
_cell_length_b                          4.63107870076
_cell_length_c                          6.9533
_cell_angle_alpha                       90
_cell_angle_beta                        97.343
_cell_angle_gamma                       90
_symmetry_space_group_name_H-M          P1
_symmetry_Int_Tables_number             1
_symmetry_cell_setting                  Monoclinic
loop_
  _symmetry_equiv_pos_as_xyz
         '+x,+y,+z' 
loop_
  _atom_site_label
  _atom_site_type_symbol
  _atom_site_fract_x
  _atom_site_fract_y
  _atom_site_fract_z
         C0        C         0.39633   0.450598  0.277866  
         C1        C         0.290366  0.688082  0.373995  
         C2        C         0.289573  0.675512  0.578074  
         C3        C         0.392519  0.437023  0.689845  
         C4        C         0.495002  0.204782  0.592284  
         C5        C         0.496516  0.211715  0.390653  
         C6        C         0.178895  0.940752  0.263016  
         H7        H         0.205312  0.851826  0.651679  
         H8        H         0.575453  0.017497  0.672453  
         H9        H         0.578607  0.029017  0.321957  
         C10       C         0.407533  0.446735  0.068814  
         C11       C         0.220888  0.281896  0.947559  
         C12       C         0.243336  0.289447  0.750867  
         C13       C         0.42481   0.437022  0.666332  
         C14       C         0.102834  0.16263   0.596744  
         C15       C         0.611784  0.600274  0.778826  
         C16       C         0.601263  0.603175  0.98175   
         Cl17      Cl        0.835067  0.803764  0.122832  
         H18       H         0.070076  0.159152  0.004986  
         H19       H         0.936401  0.022798  0.595844  
         H20       H         0.758872  0.719243  0.71445   
         C21       C         0.390073  0.429196  0.899707  
         C22       C         0.227763  0.224775  0.978735  
         C23       C         0.233648  0.230684  0.178795  
         C24       C         0.37869   0.410757  0.30322   
         C25       C         0.107063  0.072143  0.300187  
         C26       C         0.541123  0.613358  0.233432  
         C27       C         0.545566  0.620419  0.029814  
         Cl28      Cl        0.75222   0.868686  0.943592  
         H29       H         0.105759  0.07471   0.888276  
         H30       H         0.968894  0.900163  0.263805  
         H31       H         0.659486  0.758453  0.330274  
         H32       H         0.105609  0.905663  0.111741  
         C33       C         0.166324  0.210696  0.336854  
         H34       H         0.242803  0.257143  0.486045  
         C35       C         0.054324  0.460111  0.219151  
         O36       O         0.844136  0.573642  0.306992  
         H37       H         0.776162  0.738431  0.229856  
         H38       H         0.983633  0.396366  0.070142  
         H39       H         0.200792  0.628675  0.215677  
         C40       C         0.882521  0.037777  0.769491  
         C41       C         0.116222  0.086322  0.898139  
         C42       C         0.105637  0.090642  0.101281  
         C43       C         0.871925  0.04563   0.18082   
         C44       C         0.643696  0.999381  0.051596  
         C45       C         0.649227  0.995837  0.85035   
         C46       C         0.364492  0.136592  0.821602  
         H47       H         0.280678  0.132683  0.199711  
         H48       H         0.460269  0.964454  0.106502  
         H49       H         0.469282  0.957876  0.756567  
         C50       C         0.876089  0.026796  0.55875   
         C51       C         0.785297  0.272354  0.446675  
         C52       C         0.785614  0.246172  0.247864  
         C53       C         0.862926  0.010885  0.153353  
         C54       C         0.714907  0.431766  0.100424  
         C55       C         0.952259  0.765408  0.256497  
         C56       C         0.957673  0.775921  0.460947  
         Cl57      Cl        0.066322  0.469936  0.590043  
         H58       H         0.720957  0.467915  0.512382  
         H59       H         0.640127  0.648778  0.108302  
         H60       H         0.014368  0.57488   0.183983  
         C61       C         0.865881  0.050422  0.390338  
         C62       C         0.734333  0.280746  0.472314  
         C63       C         0.737835  0.272825  0.672145  
         C64       C         0.853173  0.067736  0.793724  
         C65       C         0.636012  0.452215  0.79591   
         C66       C         0.98312   0.83778   0.720823  
         C67       C         0.987957  0.831056  0.517243  
         Cl68      Cl        0.145105  0.541103  0.426279  
         H69       H         0.638528  0.452874  0.384364  
         H70       H         0.525771  0.647713  0.762203  
         H71       H         0.075644  0.670925  0.81519   
         H72       H         0.35436   0.224866  0.676374  
         C73       C         0.600518  0.075989  0.91924   
         H74       H         0.619558  0.981169  0.06293   
         C75       C         0.846128  0.127719  0.835775  
         O76       O         0.001651  0.322148  0.95863   
         H77       H         0.162272  0.34986   0.90338   
         H78       H         0.810596  0.221074  0.690132  
         H79       H         0.951142  0.924247  0.828329  
         C80       C         0.382521  0.537777  0.769491  
         C81       C         0.616222  0.586322  0.898139  
         C82       C         0.605637  0.590642  0.101281  
         C83       C         0.371925  0.54563   0.18082   
         C84       C         0.143696  0.499381  0.051596  
         C85       C         0.149227  0.495837  0.85035   
         C86       C         0.864492  0.636592  0.821602  
         H87       H         0.780678  0.632683  0.199711  
         H88       H         0.960269  0.464454  0.106502  
         H89       H         0.969282  0.457876  0.756567  
         C90       C         0.376089  0.526796  0.55875   
         C91       C         0.285297  0.772354  0.446675  
         C92       C         0.285614  0.746172  0.247864  
         C93       C         0.362926  0.510885  0.153353  
         C94       C         0.214907  0.931766  0.100424  
         C95       C         0.452259  0.265408  0.256497  
         C96       C         0.457673  0.275921  0.460947  
         Cl97      Cl        0.566322  0.969936  0.590043  
         H98       H         0.220957  0.967915  0.512382  
         H99       H         0.140127  0.148778  0.108302  
         H100      H         0.514368  0.07488   0.183983  
         C101      C         0.365881  0.550422  0.390338  
         C102      C         0.234333  0.780746  0.472314  
         C103      C         0.237835  0.772825  0.672145  
         C104      C         0.353173  0.567736  0.793724  
         C105      C         0.136012  0.952215  0.79591   
         C106      C         0.48312   0.33778   0.720823  
         C107      C         0.487957  0.331056  0.517243  
         Cl108     Cl        0.645105  0.041103  0.426279  
         H109      H         0.138528  0.952874  0.384364  
         H110      H         0.025771  0.147713  0.762203  
         H111      H         0.575644  0.170925  0.81519   
         H112      H         0.85436   0.724866  0.676374  
         C113      C         0.100518  0.575989  0.91924   
         H114      H         0.119558  0.481169  0.06293   
         C115      C         0.346128  0.627719  0.835775  
         O116      O         0.501651  0.822148  0.95863   
         H117      H         0.662272  0.84986   0.90338   
         H118      H         0.310596  0.721074  0.690132  
         H119      H         0.451142  0.424247  0.828329  
         C120      C         0.896246  0.950672  0.270806  
         C121      C         0.790135  0.188087  0.366907  
         C122      C         0.789334  0.175533  0.570985  
         C123      C         0.892413  0.937129  0.682782  
         C124      C         0.995041  0.704954  0.585248  
         C125      C         0.996565  0.711871  0.383618  
         C126      C         0.678522  0.440667  0.2559    
         H127      H         0.704964  0.351793  0.64457   
         H128      H         0.075596  0.517734  0.665437  
         H129      H         0.07877   0.529226  0.314943  
         C130      C         0.907467  0.946799  0.061755  
         C131      C         0.720927  0.781815  0.940509  
         C132      C         0.743385  0.789365  0.743819  
         C133      C         0.924779  0.937064  0.659278  
         C134      C         0.602968  0.662433  0.589703  
         C135      C         0.11165   0.100461  0.771763  
         C136      C         0.101113  0.103372  0.974686  
         Cl137     Cl        0.33479   0.304142  0.115757  
         H138      H         0.570181  0.658966  0.997941  
         H139      H         0.436616  0.522481  0.588809  
         H140      H         0.258674  0.219531  0.707383  
         C141      C         0.889956  0.929318  0.892644  
         C142      C         0.72776   0.724785  0.971684  
         C143      C         0.733627  0.730716  0.171742  
         C144      C         0.878555  0.910905  0.296155  
         C145      C         0.607125  0.572094  0.293143  
         C146      C         0.040875  0.113618  0.226355  
         C147      C         0.045328  0.120665  0.022738  
         Cl148     Cl        0.251844  0.369074  0.936502  
         H149      H         0.60585   0.574625  0.881234  
         H150      H         0.46906   0.40001   0.256772  
         H151      H         0.159146  0.258807  0.323188  
         H152      H         0.605268  0.405511  0.104627  
         C153      C         0.665787  0.710607  0.329712  
         H154      H         0.742229  0.757123  0.4789    
         C155      C         0.553648  0.959931  0.211982  
         O156      O         0.343386  0.073318  0.299803  
         H157      H         0.27532   0.238051  0.222649  
         H158      H         0.483006  0.896122  0.062977  
         H159      H         0.700018  0.128601  0.208498  
         Fe160     Fe        0.0       0.438903  0.75      
         Fe161     Fe        1.0       0.561097  0.25      
         N162      N         0.726419  0.290954  0.120592  
         N163      N         0.726419  0.709046  0.620592  
         N164      N         0.273581  0.290954  0.379408  
         N165      N         0.273581  0.709046  0.879408  
         N166      N         0.816039  0.157882  0.968051  
         N167      N         0.816039  0.842118  0.468051  
         N168      N         0.183961  0.157882  0.531949  
         N169      N         0.183961  0.842118  0.031949  
         Fe170     Fe        0.5       0.938903  0.764103  
         Fe171     Fe        0.5       0.061097  0.264103  
         N172      N         0.226419  0.790954  0.134695  
         N173      N         0.226419  0.209046  0.634695  
         N174      N         0.773581  0.790954  0.393511  
         N175      N         0.773581  0.209046  0.893511  
         N176      N         0.316039  0.657882  0.982154  
         N177      N         0.316039  0.342118  0.482154  
         N178      N         0.683961  0.657882  0.546052  
         N179      N         0.683961  0.342118  0.046052 