
##########################################################################
#               Crystallographic Information Format file 
#               Produced by PyCifRW module
# 
#  This is a CIF file.  CIF has been adopted by the International
#  Union of Crystallography as the standard for data archiving and 
#  transmission.
#
#  For information on this file format, follow the CIF links at
#  http://www.iucr.org
##########################################################################

data_ZEOPP

_cell_length_a                          26.370555214
_cell_length_b                          23.4329331997
_cell_length_c                          6.9533
_cell_angle_alpha                       90
_cell_angle_beta                        97.343
_cell_angle_gamma                       90
_symmetry_space_group_name_H-M          P1
_symmetry_Int_Tables_number             1
_symmetry_cell_setting                  Monoclinic
loop_
  _symmetry_equiv_pos_as_xyz
         '+x,+y,+z' 
loop_
  _atom_site_label
  _atom_site_type_symbol
  _atom_site_fract_x
  _atom_site_fract_y
  _atom_site_fract_z
         C0        C         0.281856  0.194833  0.637111  
         C1        C         0.281297  0.23865   0.780745  
         C2        C         0.239505  0.277344  0.766283  
         C3        C         0.198118  0.273647  0.615521  
         C4        C         0.199502  0.230332  0.475041  
         C5        C         0.240531  0.191831  0.485761  
         C6        C         0.323881  0.244428  0.939993  
         H7        H         0.239207  0.311335  0.872254  
         H8        H         0.168586  0.226054  0.35683   
         H9        H         0.239835  0.159017  0.375169  
         C10       C         0.323032  0.152857  0.641915  
         C11       C         0.361095  0.160231  0.515886  
         C12       C         0.399002  0.11881   0.529119  
         C13       C         0.402667  0.07278   0.649191  
         C14       C         0.440324  0.112326  0.434287  
         C15       C         0.366295  0.063637  0.774459  
         C16       C         0.326261  0.104296  0.76927   
         Cl17      Cl        0.280573  0.092854  0.923541  
         H18       H         0.36065   0.196039  0.416411  
         H19       H         0.452736  0.139496  0.323498  
         H20       H         0.368403  0.027102  0.87123   
         C21       C         0.155482  0.313866  0.603864  
         C22       C         0.14903   0.353888  0.448228  
         C23       C         0.108003  0.391039  0.446884  
         C24       C         0.074071  0.392349  0.578479  
         C25       C         0.090866  0.433653  0.32433   
         C26       C         0.078571  0.354018  0.732645  
         C27       C         0.119709  0.3146    0.743824  
         Cl28      Cl        0.124589  0.266087  0.933577  
         H29       H         0.174736  0.355526  0.338051  
         H30       H         0.106493  0.448036  0.196255  
         H31       H         0.051771  0.354147  0.838939  
         H32       H         0.360892  0.22832   0.913264  
         C33       C         0.319412  0.267516  0.11589   
         H34       H         0.282886  0.282918  0.150573  
         C35       C         0.363303  0.272031  0.273116  
         O36       O         0.37084   0.330488  0.323414  
         H37       H         0.399095  0.332475  0.427922  
         H38       H         0.398608  0.255162  0.227552  
         H39       H         0.354804  0.248437  0.400988  
         C40       C         0.776709  0.312008  0.11112   
         C41       C         0.725697  0.329562  0.039473  
         C42       C         0.685345  0.289182  0.033842  
         C43       C         0.693841  0.232279  0.09859   
         C44       C         0.744397  0.215777  0.167878  
         C45       C         0.784905  0.254841  0.173759  
         C46       C         0.715058  0.388436  0.968907  
         H47       H         0.64674   0.301769  0.976407  
         H48       H         0.752603  0.172522  0.218598  
         H49       H         0.823103  0.240348  0.229192  
         C50       C         0.8204    0.35087   0.12398   
         C51       C         0.854138  0.347829  0.97977   
         C52       C         0.8946    0.386147  0.001268  
         C53       C         0.904556  0.425325  0.145424  
         C54       C         0.933139  0.395287  0.893985  
         C55       C         0.872798  0.429777  0.290007  
         C56       C         0.830499  0.391926  0.277755  
         Cl57      Cl        0.791095  0.396875  0.458394  
         H58       H         0.848497  0.317672  0.86025   
         H59       H         0.940528  0.373455  0.763323  
         H60       H         0.880092  0.460652  0.40673   
         C61       C         0.651704  0.191523  0.09179   
         C62       C         0.650077  0.144818  0.959748  
         C63       C         0.60884   0.108037  0.959989  
         C64       C         0.570728  0.112617  0.073565  
         C65       C         0.595264  0.060483  0.855726  
         C66       C         0.570673  0.157304  0.205419  
         C67       C         0.611717  0.196775  0.213546  
         Cl68      Cl        0.612168  0.2517    0.380842  
         H69       H         0.679079  0.138503  0.863957  
         H70       H         0.614835  0.040571  0.745699  
         H71       H         0.540735  0.161644  0.29813   
         H72       H         0.746223  0.411289  0.915816  
         C73       C         0.669624  0.415537  0.969157  
         H74       H         0.637792  0.394819  0.025166  
         C75       C         0.660691  0.475182  0.898207  
         O76       O         0.619892  0.474984  0.743382  
         H77       H         0.614157  0.514298  0.70101   
         H78       H         0.694676  0.493259  0.845811  
         H79       H         0.650049  0.502123  0.015196  
         C80       C         0.27646   0.811762  0.113878  
         C81       C         0.225579  0.829445  0.040852  
         C82       C         0.18519   0.789035  0.032435  
         C83       C         0.193519  0.731973  0.095722  
         C84       C         0.24395   0.715348  0.166406  
         C85       C         0.284494  0.754442  0.17504   
         C86       C         0.21512   0.888491  0.97173   
         H87       H         0.146693  0.801727  0.97394   
         H88       H         0.252027  0.671971  0.216083  
         H89       H         0.322589  0.739848  0.231461  
         C90       C         0.320171  0.850639  0.129599  
         C91       C         0.354346  0.848017  0.986829  
         C92       C         0.394802  0.886324  0.011034  
         C93       C         0.404376  0.925132  0.156549  
         C94       C         0.433682  0.895791  0.905691  
         C95       C         0.372184  0.929166  0.299812  
         C96       C         0.329864  0.891301  0.284782  
         Cl97      Cl        0.289916  0.895728  0.463764  
         H98       H         0.349024  0.81817   0.866354  
         H99       H         0.441437  0.874313  0.77485   
         H100      H         0.379168  0.959742  0.41758   
         C101      C         0.151346  0.691189  0.086057  
         C102      C         0.150078  0.644831  0.95274   
         C103      C         0.108787  0.608003  0.950259  
         C104      C         0.070316  0.612239  0.062313  
         C105      C         0.095478  0.56071   0.844188  
         C106      C         0.069901  0.656578  0.195316  
         C107      C         0.110976  0.696073  0.206225  
         Cl108     Cl        0.110971  0.750556  0.374946  
         H109      H         0.179378  0.638802  0.858036  
         H110      H         0.115374  0.541111  0.73449   
         H111      H         0.039672  0.660639  0.286848  
         H112      H         0.246469  0.911519  0.920622  
         C113      C         0.169628  0.915537  0.971004  
         H114      H         0.137602  0.894636  0.025062  
         C115      C         0.160878  0.975356  0.901588  
         O116      O         0.120449  0.975519  0.745373  
         H117      H         0.114824  0.014937  0.704012  
         H118      H         0.19505   0.99361   0.851143  
         H119      H         0.149903  0.001975  0.018799  
         C120      C         0.723291  0.812008  0.40277   
         C121      C         0.774303  0.829562  0.474417  
         C122      C         0.814655  0.789182  0.480048  
         C123      C         0.806159  0.732279  0.4153    
         C124      C         0.755603  0.715777  0.346012  
         C125      C         0.715095  0.754841  0.340131  
         C126      C         0.784942  0.888436  0.544983  
         H127      H         0.85326   0.801769  0.537483  
         H128      H         0.747397  0.672522  0.295292  
         H129      H         0.676897  0.740348  0.284698  
         C130      C         0.6796    0.85087   0.38991   
         C131      C         0.645862  0.847829  0.53412   
         C132      C         0.6054    0.886147  0.512622  
         C133      C         0.595444  0.925325  0.368466  
         C134      C         0.566861  0.895287  0.619905  
         C135      C         0.627202  0.929777  0.223883  
         C136      C         0.669501  0.891926  0.236135  
         Cl137     Cl        0.708905  0.896875  0.055496  
         H138      H         0.651503  0.817672  0.65364   
         H139      H         0.559472  0.873455  0.750567  
         H140      H         0.619908  0.960652  0.10716   
         C141      C         0.848296  0.691523  0.4221    
         C142      C         0.849923  0.644818  0.554142  
         C143      C         0.89116   0.608037  0.553901  
         C144      C         0.929272  0.612617  0.440325  
         C145      C         0.904736  0.560483  0.658164  
         C146      C         0.929327  0.657304  0.308471  
         C147      C         0.888283  0.696775  0.300344  
         Cl148     Cl        0.887832  0.7517    0.133048  
         H149      H         0.820921  0.638503  0.649933  
         H150      H         0.885165  0.540571  0.768191  
         H151      H         0.959265  0.661644  0.21576   
         H152      H         0.753777  0.911289  0.598074  
         C153      C         0.830376  0.915537  0.544733  
         H154      H         0.862208  0.894819  0.488724  
         C155      C         0.839309  0.975182  0.615683  
         O156      O         0.880108  0.974984  0.770508  
         H157      H         0.885843  0.014298  0.81288   
         H158      H         0.805324  0.993259  0.668079  
         H159      H         0.849951  0.002123  0.498694  
         Fe160     Fe        1.0       0.487925  0.75      
         Fe161     Fe        1.0       0.512075  0.25      
         N162      N         0.945932  0.458686  0.120592  
         N163      N         0.945932  0.541314  0.620592  
         N164      N         0.054068  0.458686  0.379408  
         N165      N         0.054068  0.541314  0.879408  
         N166      N         0.963644  0.432387  0.968051  
         N167      N         0.963644  0.567613  0.468051  
         N168      N         0.036356  0.432387  0.531949  
         N169      N         0.036356  0.567613  0.031949  
         Fe170     Fe        0.5       0.987925  0.76389   
         Fe171     Fe        0.5       0.012075  0.26389   
         N172      N         0.445932  0.958686  0.134482  
         N173      N         0.445932  0.041314  0.634482  
         N174      N         0.554068  0.958686  0.393298  
         N175      N         0.554068  0.041314  0.893298  
         N176      N         0.463644  0.932387  0.981941  
         N177      N         0.463644  0.067613  0.481941  
         N178      N         0.536356  0.932387  0.545839  
         N179      N         0.536356  0.067613  0.045839 