
##########################################################################
#               Crystallographic Information Format file 
#               Produced by PyCifRW module
# 
#  This is a CIF file.  CIF has been adopted by the International
#  Union of Crystallography as the standard for data archiving and 
#  transmission.
#
#  For information on this file format, follow the CIF links at
#  http://www.iucr.org
##########################################################################

data_ZEOPP

_cell_length_a                          29.594366648
_cell_length_b                          26.2976191104
_cell_length_c                          6.9533
_cell_angle_alpha                       90
_cell_angle_beta                        97.343
_cell_angle_gamma                       90
_symmetry_space_group_name_H-M          P1
_symmetry_Int_Tables_number             1
_symmetry_cell_setting                  Monoclinic
loop_
  _symmetry_equiv_pos_as_xyz
         '+x,+y,+z' 
loop_
  _atom_site_label
  _atom_site_type_symbol
  _atom_site_fract_x
  _atom_site_fract_y
  _atom_site_fract_z
         C0        C         0.31213   0.177524  0.414566  
         C1        C         0.315317  0.215559  0.56492   
         C2        C         0.278973  0.250882  0.56511   
         C3        C         0.240023  0.250512  0.42344   
         C4        C         0.237996  0.212984  0.277064  
         C5        C         0.273197  0.177445  0.272903  
         C6        C         0.354916  0.220008  0.721997  
         O7        O         0.392146  0.1996    0.693981  
         O8        O         0.348266  0.244499  0.872122  
         H9        H         0.281259  0.279405  0.6789    
         H10       H         0.209011  0.211131  0.164524  
         H11       H         0.269852  0.14924   0.157869  
         C12       C         0.346761  0.138475  0.402034  
         C13       C         0.37939   0.145668  0.270562  
         C14       C         0.41185   0.107606  0.270284  
         C15       C         0.414756  0.064826  0.381042  
         C16       C         0.447534  0.102166  0.168434  
         C17       C         0.383307  0.055823  0.509879  
         C18       C         0.349159  0.093291  0.519177  
         Cl19      Cl        0.309797  0.082373  0.678979  
         H20       H         0.37935   0.179128  0.17889   
         H21       H         0.45844   0.127684  0.061358  
         H22       H         0.384926  0.02189   0.599453  
         C23       C         0.130686  0.360693  0.438066  
         C24       C         0.121552  0.307934  0.424784  
         C25       C         0.156897  0.27236   0.419525  
         C26       C         0.203242  0.287618  0.428347  
         C27       C         0.211996  0.340776  0.442986  
         C28       C         0.176676  0.376382  0.448053  
         F29       F         0.187366  0.426003  0.464961  
         F30       F         0.254886  0.358242  0.451366  
         F31       F         0.145892  0.222769  0.408024  
         F32       F         0.078509  0.290914  0.416286  
         C33       C         0.094069  0.39752   0.442595  
         C34       C         0.063902  0.402831  0.573804  
         C35       C         0.079068  0.436666  0.322786  
         C36       C         0.095682  0.45219   0.139599  
         O37       O         0.07863   0.491734  0.056463  
         O38       O         0.125418  0.425802  0.070877  
         H39       H         0.061707  0.379763  0.701117  
         C40       C         0.826088  0.302343  0.867068  
         C41       C         0.831708  0.250058  0.927539  
         C42       C         0.792991  0.217621  0.901927  
         C43       C         0.749184  0.23454   0.820998  
         C44       C         0.744658  0.286089  0.764245  
         C45       C         0.782186  0.319101  0.786915  
         C46       C         0.876254  0.227786  0.016126  
         O47       O         0.906921  0.25789   0.089937  
         O48       O         0.879841  0.179945  0.0121    
         H49       H         0.797252  0.178158  0.946646  
         H50       H         0.711817  0.301079  0.702185  
         H51       H         0.776914  0.358287  0.740046  
         C52       C         0.863536  0.338926  0.881665  
         C53       C         0.868896  0.373557  0.040503  
         C54       C         0.905854  0.406262  0.047156  
         C55       C         0.93637   0.408271  0.916801  
         C56       C         0.921428  0.442879  0.175281  
         C57       C         0.932209  0.375625  0.757919  
         C58       C         0.89531   0.340787  0.74184   
         Cl59      Cl        0.889805  0.300033  0.544282  
         H60       H         0.84603   0.373803  0.150931  
         H61       H         0.907466  0.454593  0.304683  
         H62       H         0.956126  0.376623  0.651869  
         C63       C         0.632888  0.131763  0.749573  
         C64       C         0.64424   0.161537  0.593286  
         C65       C         0.681757  0.194848  0.616642  
         C66       C         0.710045  0.199945  0.797079  
         C67       C         0.698433  0.16953   0.952772  
         C68       C         0.660899  0.136249  0.929629  
         F69       F         0.65222   0.108025  0.081885  
         F70       F         0.723409  0.172296  0.128041  
         F71       F         0.690825  0.22181   0.461878  
         F72       F         0.618978  0.15849   0.418684  
         C73       C         0.593924  0.097463  0.725578  
         C74       C         0.585692  0.056594  0.605721  
         C75       C         0.55512   0.095347  0.811706  
         C76       C         0.540107  0.130725  0.956499  
         O77       O         0.503926  0.119961  0.026374  
         O78       O         0.562966  0.170285  0.003971  
         H79       H         0.607264  0.04216   0.503705  
         C80       C         0.308097  0.826609  0.896735  
         C81       C         0.261544  0.839536  0.827198  
         C82       C         0.227396  0.801962  0.837099  
         C83       C         0.237191  0.75239   0.910919  
         C84       C         0.283187  0.740715  0.976846  
         C85       C         0.317718  0.77694   0.96972   
         C86       C         0.246978  0.890582  0.744825  
         O87       O         0.276805  0.918575  0.68408   
         O88       O         0.205378  0.901901  0.740438  
         H89       H         0.192282  0.811759  0.785547  
         H90       H         0.292594  0.703232  0.034033  
         H91       H         0.352475  0.766106  0.02313   
         C92       C         0.345937  0.862369  0.898392  
         C93       C         0.37404   0.859814  0.746908  
         C94       C         0.408544  0.895781  0.75567   
         C95       C         0.417798  0.932057  0.894491  
         C96       C         0.440635  0.904903  0.637931  
         C97       C         0.391636  0.935644  0.046699  
         C98       C         0.355453  0.90026   0.047004  
         Cl99      Cl        0.322729  0.904376  0.236153  
         H100      H         0.368386  0.832105  0.630423  
         H101      H         0.4461    0.884959  0.506807  
         H102      H         0.398461  0.964242  0.159289  
         C103      C         0.129786  0.640229  0.934088  
         C104      C         0.161107  0.651538  0.099651  
         C105      C         0.195887  0.687692  0.091892  
         C106      C         0.201036  0.714641  0.918596  
         C107      C         0.169121  0.703154  0.75344   
         C108      C         0.134361  0.666972  0.760988  
         F109      F         0.104909  0.658481  0.600431  
         F110      F         0.171803  0.726883  0.584069  
         F111      F         0.224337  0.696858  0.254817  
         F112      F         0.158119  0.627519  0.268228  
         C113      C         0.093921  0.602632  0.941941  
         C114      C         0.059049  0.602141  0.052351  
         C115      C         0.084203  0.558072  0.845488  
         C116      C         0.11008   0.533058  0.703252  
         O117      O         0.093473  0.493057  0.622084  
         O118      O         0.147587  0.551483  0.668886  
         H119      H         0.051798  0.63039   0.157309  
         C120      C         0.82269   0.692906  0.349404  
         C121      C         0.786406  0.686604  0.192062  
         C122      C         0.749539  0.721629  0.176069  
         C123      C         0.746798  0.762124  0.308595  
         C124      C         0.78273   0.76714   0.462141  
         C125      C         0.819694  0.733339  0.481874  
         C126      C         0.78532   0.645078  0.04346   
         O127      O         0.809751  0.606254  0.084851  
         O128      O         0.759463  0.651752  0.886381  
         H129      H         0.722292  0.717038  0.057007  
         H130      H         0.782234  0.797372  0.568204  
         H131      H         0.846521  0.739032  0.601858  
         C132      C         0.862842  0.660104  0.378058  
         C133      C         0.864388  0.620141  0.517073  
         C134      C         0.903069  0.589845  0.53268   
         C135      C         0.938933  0.595313  0.430122  
         C136      C         0.915616  0.548994  0.645067  
         C137      C         0.939226  0.634185  0.294392  
         C138      C         0.900613  0.666627  0.269404  
         Cl139     Cl        0.9007    0.7152    0.100916  
         H140      H         0.836794  0.613283  0.602921  
         H141      H         0.897071  0.530873  0.750646  
         H142      H         0.967529  0.639319  0.21114   
         C143      C         0.63213   0.867177  0.245633  
         C144      C         0.677564  0.885054  0.266503  
         C145      C         0.714605  0.851077  0.287382  
         C146      C         0.708187  0.797457  0.28742   
         C147      C         0.662312  0.779968  0.265016  
         C148      C         0.625251  0.81391   0.24433   
         F149      F         0.582753  0.794851  0.220797  
         F150      F         0.653414  0.729843  0.264212  
         F151      F         0.756913  0.870589  0.305397  
         F152      F         0.686047  0.93528   0.267304  
         C153      C         0.5938    0.902363  0.224931  
         C154      C         0.581604  0.937691  0.084471  
         C155      C         0.559446  0.910701  0.334194  
         C156      C         0.552238  0.886234  0.519551  
         O157      O         0.516432  0.897523  0.591376  
         O158      O         0.581643  0.855828  0.601054  
         H159      H         0.598916  0.946167  0.96031   
         Fe160     Fe        1.0       0.489241  0.75      
         Fe161     Fe        1.0       0.510759  0.25      
         N162      N         0.951822  0.463187  0.120592  
         N163      N         0.951822  0.536813  0.620592  
         N164      N         0.048178  0.463187  0.379408  
         N165      N         0.048178  0.536813  0.879408  
         N166      N         0.967604  0.439752  0.968051  
         N167      N         0.967604  0.560248  0.468051  
         N168      N         0.032396  0.439752  0.531949  
         N169      N         0.032396  0.560248  0.031949  
         Fe170     Fe        0.5       0.989241  0.484921  
         Fe171     Fe        0.5       0.010759  0.984921  
         N172      N         0.451822  0.963187  0.855513  
         N173      N         0.451822  0.036813  0.355513  
         N174      N         0.548178  0.963187  0.114329  
         N175      N         0.548178  0.036813  0.614329  
         N176      N         0.467604  0.939752  0.702972  
         N177      N         0.467604  0.060248  0.202972  
         N178      N         0.532396  0.939752  0.26687   
         N179      N         0.532396  0.060248  0.76687 