
##########################################################################
#               Crystallographic Information Format file 
#               Produced by PyCifRW module
# 
#  This is a CIF file.  CIF has been adopted by the International
#  Union of Crystallography as the standard for data archiving and 
#  transmission.
#
#  For information on this file format, follow the CIF links at
#  http://www.iucr.org
##########################################################################

data_ZEOPP

_cell_length_a                          16.52546
_cell_length_b                          14.68456
_cell_length_c                          6.9533
_cell_angle_alpha                       90
_cell_angle_beta                        97.343
_cell_angle_gamma                       90
_symmetry_space_group_name_H-M          P1
_symmetry_Int_Tables_number             1
_symmetry_cell_setting                  Monoclinic
loop_
  _symmetry_equiv_pos_as_xyz
         '+x,+y,+z' 
loop_
  _atom_site_label
  _atom_site_type_symbol
  _atom_site_fract_x
  _atom_site_fract_y
  _atom_site_fract_z
         C0        C         0.399823  0.065233  0.375192  
         C1        C         0.35993   0.136297  0.467561  
         C2        C         0.36577   0.142441  0.671735  
         C3        C         0.410198  0.076971  0.792665  
         C4        C         0.44886   0.005837  0.700598  
         C5        C         0.444041  0.000307  0.497438  
         C6        C         0.311612  0.208331  0.3553    
         O7        O         0.334688  0.287447  0.370313  
         N8        N         0.242028  0.178756  0.242071  
         H9        H         0.335463  0.198324  0.735963  
         H10       H         0.483364  0.95382   0.786607  
         H11       H         0.47566   0.944928  0.435215  
         C12       C         0.398772  0.059066  0.164836  
         C13       C         0.446016  0.122281  0.070613  
         C14       C         0.442331  0.112306  0.871232  
         C15       C         0.398441  0.048623  0.760713  
         C16       C         0.47837   0.159133  0.73783   
         C17       C         0.351331  0.985374  0.845941  
         C18       C         0.351938  0.99139   0.049828  
         Cl19      Cl        0.29188   0.91416   0.156007  
         H20       H         0.482689  0.174917  0.149529  
         H21       H         0.519343  0.216664  0.761027  
         H22       H         0.315574  0.934134  0.760407  
         C23       C         0.427198  0.094462  0.423054  
         C24       C         0.351128  0.100667  0.30393   
         C25       C         0.345714  0.095091  0.100604  
         C26       C         0.415909  0.082627  0.004546  
         C27       C         0.491906  0.075819  0.125371  
         C28       C         0.497415  0.08136   0.328708  
         F29       F         0.571264  0.073228  0.43336   
         F30       F         0.56125   0.064537  0.046093  
         F31       F         0.271427  0.100952  0.997148  
         F32       F         0.282109  0.112646  0.384248  
         C33       C         0.432288  0.099558  0.634447  
         C34       C         0.387883  0.05268   0.753342  
         C35       C         0.480365  0.150021  0.770173  
         C36       C         0.539787  0.216288  0.733017  
         H37       H         0.34045   0.003087  0.711595  
         H38       H         0.545601  0.229952  0.579658  
         H39       H         0.223572  0.112682  0.234148  
         H40       H         0.20538   0.223753  0.161548  
         O41       O         0.58306   0.258206  0.858845  
         C42       C         0.91698   0.449143  0.880522  
         C43       C         0.989229  0.472162  0.006954  
         C44       C         0.992894  0.464193  0.210468  
         C45       C         0.924199  0.434757  0.297037  
         C46       C         0.852231  0.413076  0.171365  
         C47       C         0.848812  0.419779  0.968629  
         C48       C         0.064654  0.503946  0.932282  
         O49       O         0.126332  0.457216  0.959019  
         N50       N         0.058541  0.586772  0.838332  
         H51       H         0.049413  0.481156  0.30107   
         H52       H         0.797874  0.39054   0.230382  
         H53       H         0.792362  0.401271  0.879655  
         C54       C         0.911965  0.451983  0.668961  
         C55       C         0.953239  0.383761  0.572925  
         C56       C         0.945679  0.390484  0.372367  
         C57       C         0.903068  0.455241  0.262237  
         C58       C         0.975964  0.338829  0.237217  
         C59       C         0.861727  0.52333   0.349217  
         C60       C         0.866736  0.521007  0.554441  
         Cl61      Cl        0.816961  0.606863  0.663743  
         H62       H         0.988347  0.329812  0.651366  
         H63       H         0.01409   0.27891   0.259549  
         H64       H         0.827566  0.575908  0.264168  
         C65       C         0.934527  0.411669  0.925399  
         C66       C         0.96101   0.491503  0.837425  
         C67       C         0.957716  0.498858  0.634744  
         C68       C         0.927479  0.427061  0.508178  
         C69       C         0.900497  0.347473  0.597723  
         C70       C         0.903735  0.340026  0.80037   
         F71       F         0.876211  0.263109  0.87423   
         F72       F         0.871514  0.276261  0.488578  
         F73       F         0.983408  0.576875  0.561656  
         F74       F         0.990503  0.562172  0.947667  
         C75       C         0.937499  0.404794  0.136148  
         C76       C         0.909495  0.465433  0.260025  
         C77       C         0.967567  0.339223  0.266404  
         C78       C         0.008084  0.257096  0.223506  
         H79       H         0.879996  0.530072  0.223725  
         H80       H         0.018228  0.247064  0.071462  
         H81       H         0.006804  0.624924  0.8203    
         H82       H         0.107453  0.613557  0.783798  
         O83       O         0.032134  0.199049  0.343495  
         C84       C         0.41698   0.949143  0.880522  
         C85       C         0.489229  0.972162  0.006954  
         C86       C         0.492894  0.964193  0.210468  
         C87       C         0.424199  0.934757  0.297037  
         C88       C         0.352231  0.913076  0.171365  
         C89       C         0.348812  0.919779  0.968629  
         C90       C         0.564654  0.003946  0.932282  
         O91       O         0.626332  0.957216  0.959019  
         N92       N         0.558541  0.086772  0.838332  
         H93       H         0.549413  0.981156  0.30107   
         H94       H         0.297874  0.89054   0.230382  
         H95       H         0.292362  0.901271  0.879655  
         C96       C         0.411965  0.951983  0.668961  
         C97       C         0.453239  0.883761  0.572925  
         C98       C         0.445679  0.890484  0.372367  
         C99       C         0.403068  0.955241  0.262237  
         C100      C         0.475964  0.838829  0.237217  
         C101      C         0.361727  0.02333   0.349217  
         C102      C         0.366736  0.021007  0.554441  
         Cl103     Cl        0.316961  0.106863  0.663743  
         H104      H         0.488347  0.829812  0.651366  
         H105      H         0.51409   0.77891   0.259549  
         H106      H         0.327566  0.075908  0.264168  
         C107      C         0.434527  0.911669  0.925399  
         C108      C         0.46101   0.991503  0.837425  
         C109      C         0.457716  0.998858  0.634744  
         C110      C         0.427479  0.927061  0.508178  
         C111      C         0.400497  0.847473  0.597723  
         C112      C         0.403735  0.840026  0.80037   
         F113      F         0.376211  0.763109  0.87423   
         F114      F         0.371514  0.776261  0.488578  
         F115      F         0.483408  0.076875  0.561656  
         F116      F         0.490503  0.062172  0.947667  
         C117      C         0.437499  0.904794  0.136148  
         C118      C         0.409495  0.965433  0.260025  
         C119      C         0.467567  0.839223  0.266404  
         C120      C         0.508084  0.757096  0.223506  
         H121      H         0.379996  0.030072  0.223725  
         H122      H         0.518228  0.747064  0.071462  
         H123      H         0.506804  0.124924  0.8203    
         H124      H         0.607453  0.113557  0.783798  
         O125      O         0.532134  0.699049  0.343495  
         C126      C         0.899845  0.565233  0.375317  
         C127      C         0.859953  0.636297  0.467686  
         C128      C         0.865793  0.642441  0.67186   
         C129      C         0.91022   0.576971  0.792791  
         C130      C         0.948882  0.505837  0.700723  
         C131      C         0.944064  0.500307  0.497563  
         C132      C         0.811634  0.708331  0.355425  
         O133      O         0.83471   0.787447  0.370438  
         N134      N         0.74205   0.678756  0.242196  
         H135      H         0.835485  0.698324  0.736088  
         H136      H         0.983386  0.45382   0.786732  
         H137      H         0.975682  0.444928  0.43534   
         C138      C         0.898794  0.559066  0.164961  
         C139      C         0.946038  0.622281  0.070738  
         C140      C         0.942353  0.612306  0.871357  
         C141      C         0.898463  0.548623  0.760838  
         C142      C         0.978393  0.659133  0.737955  
         C143      C         0.851353  0.485374  0.846066  
         C144      C         0.85196   0.49139   0.049953  
         Cl145     Cl        0.791903  0.41416   0.156132  
         H146      H         0.982712  0.674917  0.149654  
         H147      H         0.019365  0.716664  0.761152  
         H148      H         0.815596  0.434134  0.760532  
         C149      C         0.92722   0.594462  0.423179  
         C150      C         0.85115   0.600667  0.304055  
         C151      C         0.845736  0.595091  0.100729  
         C152      C         0.915932  0.582627  0.004671  
         C153      C         0.991928  0.575819  0.125496  
         C154      C         0.997438  0.58136   0.328833  
         F155      F         0.071286  0.573228  0.433485  
         F156      F         0.061272  0.564537  0.046218  
         F157      F         0.77145   0.600952  0.997273  
         F158      F         0.782131  0.612646  0.384373  
         C159      C         0.932311  0.599558  0.634572  
         C160      C         0.887905  0.55268   0.753467  
         C161      C         0.980388  0.650021  0.770298  
         C162      C         0.039809  0.716288  0.733142  
         H163      H         0.840473  0.503087  0.71172   
         H164      H         0.045623  0.729952  0.579783  
         H165      H         0.723594  0.612682  0.234273  
         H166      H         0.705403  0.723753  0.161673  
         O167      O         0.083082  0.758206  0.85897   
         Fe168     Fe        1.0       0.480732  0.75      
         Fe169     Fe        1.0       0.519268  0.25      
         N170      N         0.913721  0.434073  0.120592  
         N171      N         0.913721  0.565927  0.620592  
         N172      N         0.086279  0.434073  0.379408  
         N173      N         0.086279  0.565927  0.879408  
         N174      N         0.941984  0.392106  0.968051  
         N175      N         0.941984  0.607894  0.468051  
         N176      N         0.058016  0.392106  0.531949  
         N177      N         0.058016  0.607894  0.031949  
         Fe178     Fe        0.5       0.980732  0.749875  
         Fe179     Fe        0.5       0.019268  0.249875  
         N180      N         0.413721  0.934073  0.120467  
         N181      N         0.413721  0.065927  0.620467  
         N182      N         0.586279  0.934073  0.379283  
         N183      N         0.586279  0.065927  0.879283  
         N184      N         0.441984  0.892106  0.967926  
         N185      N         0.441984  0.107894  0.467926  
         N186      N         0.558016  0.892106  0.531824  
         N187      N         0.558016  0.107894  0.031824 